
---------- Begin Simulation Statistics ----------
final_tick                               1352666035000                       # Number of ticks from beginning of simulation (restored from checkpoints and never reset)
host_inst_rate                                 754083                       # Simulator instruction rate (inst/s)
host_mem_usage                                4573600                       # Number of bytes of host memory used
host_op_rate                                  1472316                       # Simulator op (including micro ops) rate (op/s)
host_seconds                                  1723.95                       # Real time elapsed on the host
host_tick_rate                               54041402                       # Simulator tick rate (ticks/s)
sim_freq                                 1000000000000                       # Frequency of simulated ticks
sim_insts                                  1300000003                       # Number of instructions simulated
sim_ops                                    2538198256                       # Number of ops (including micro ops) simulated
sim_seconds                                  0.093165                       # Number of seconds simulated
sim_ticks                                 93164626750                       # Number of ticks simulated
system.cpu.committedInsts                           0                       # Number of instructions committed
system.cpu.committedOps                             0                       # Number of ops (including micro ops) committed
system.cpu.dtb.rdAccesses                           0                       # TLB accesses on read requests
system.cpu.dtb.rdMisses                             0                       # TLB misses on read requests
system.cpu.dtb.wrAccesses                           0                       # TLB accesses on write requests
system.cpu.dtb.wrMisses                             0                       # TLB misses on write requests
system.cpu.idle_fraction                            0                       # Percentage of idle cycles
system.cpu.itb.rdAccesses                           0                       # TLB accesses on read requests
system.cpu.itb.rdMisses                             0                       # TLB misses on read requests
system.cpu.itb.wrAccesses                           0                       # TLB accesses on write requests
system.cpu.itb.wrMisses                             0                       # TLB misses on write requests
system.cpu.not_idle_fraction                        1                       # Percentage of non-idle cycles
system.cpu.numCycles                                0                       # number of cpu cycles simulated
system.cpu.numWorkItemsCompleted                    0                       # number of work items this cpu completed
system.cpu.numWorkItemsStarted                      0                       # number of work items this cpu started
system.cpu.num_busy_cycles                          0                       # Number of busy cycles
system.cpu.num_conditional_control_insts            0                       # number of instructions that are conditional controls
system.cpu.num_fp_alu_accesses                      0                       # Number of float alu accesses
system.cpu.num_fp_insts                             0                       # number of float instructions
system.cpu.num_fp_register_reads                    0                       # number of times the floating registers were read
system.cpu.num_fp_register_writes                   0                       # number of times the floating registers were written
system.cpu.num_func_calls                           0                       # number of times a function call or return occured
system.cpu.num_idle_cycles                          0                       # Number of idle cycles
system.cpu.num_int_alu_accesses                     0                       # Number of integer alu accesses
system.cpu.num_int_insts                            0                       # number of integer instructions
system.cpu.num_int_register_reads                   0                       # number of times the integer registers were read
system.cpu.num_int_register_writes                  0                       # number of times the integer registers were written
system.cpu.num_load_insts                           0                       # Number of load instructions
system.cpu.num_mem_refs                             0                       # number of memory refs
system.cpu.num_store_insts                          0                       # Number of store instructions
system.cpu.num_vec_alu_accesses                     0                       # Number of vector alu accesses
system.cpu.num_vec_insts                            0                       # number of vector instructions
system.cpu.num_vec_register_reads                   0                       # number of times the vector registers were read
system.cpu.num_vec_register_writes                  0                       # number of times the vector registers were written
system.cpu.op_class::No_OpClass                     0                       # Class of executed instruction
system.cpu.op_class::IntAlu                         0                       # Class of executed instruction
system.cpu.op_class::IntMult                        0                       # Class of executed instruction
system.cpu.op_class::IntDiv                         0                       # Class of executed instruction
system.cpu.op_class::FloatAdd                       0                       # Class of executed instruction
system.cpu.op_class::FloatCmp                       0                       # Class of executed instruction
system.cpu.op_class::FloatCvt                       0                       # Class of executed instruction
system.cpu.op_class::FloatMult                      0                       # Class of executed instruction
system.cpu.op_class::FloatMultAcc                   0                       # Class of executed instruction
system.cpu.op_class::FloatDiv                       0                       # Class of executed instruction
system.cpu.op_class::FloatMisc                      0                       # Class of executed instruction
system.cpu.op_class::FloatSqrt                      0                       # Class of executed instruction
system.cpu.op_class::SimdAdd                        0                       # Class of executed instruction
system.cpu.op_class::SimdAddAcc                     0                       # Class of executed instruction
system.cpu.op_class::SimdAlu                        0                       # Class of executed instruction
system.cpu.op_class::SimdCmp                        0                       # Class of executed instruction
system.cpu.op_class::SimdCvt                        0                       # Class of executed instruction
system.cpu.op_class::SimdMisc                       0                       # Class of executed instruction
system.cpu.op_class::SimdMult                       0                       # Class of executed instruction
system.cpu.op_class::SimdMultAcc                    0                       # Class of executed instruction
system.cpu.op_class::SimdShift                      0                       # Class of executed instruction
system.cpu.op_class::SimdShiftAcc                   0                       # Class of executed instruction
system.cpu.op_class::SimdDiv                        0                       # Class of executed instruction
system.cpu.op_class::SimdSqrt                       0                       # Class of executed instruction
system.cpu.op_class::SimdFloatAdd                   0                       # Class of executed instruction
system.cpu.op_class::SimdFloatAlu                   0                       # Class of executed instruction
system.cpu.op_class::SimdFloatCmp                   0                       # Class of executed instruction
system.cpu.op_class::SimdFloatCvt                   0                       # Class of executed instruction
system.cpu.op_class::SimdFloatDiv                   0                       # Class of executed instruction
system.cpu.op_class::SimdFloatMisc                  0                       # Class of executed instruction
system.cpu.op_class::SimdFloatMult                  0                       # Class of executed instruction
system.cpu.op_class::SimdFloatMultAcc               0                       # Class of executed instruction
system.cpu.op_class::SimdFloatSqrt                  0                       # Class of executed instruction
system.cpu.op_class::SimdReduceAdd                  0                       # Class of executed instruction
system.cpu.op_class::SimdReduceAlu                  0                       # Class of executed instruction
system.cpu.op_class::SimdReduceCmp                  0                       # Class of executed instruction
system.cpu.op_class::SimdFloatReduceAdd             0                       # Class of executed instruction
system.cpu.op_class::SimdFloatReduceCmp             0                       # Class of executed instruction
system.cpu.op_class::SimdAes                        0                       # Class of executed instruction
system.cpu.op_class::SimdAesMix                     0                       # Class of executed instruction
system.cpu.op_class::SimdSha1Hash                   0                       # Class of executed instruction
system.cpu.op_class::SimdSha1Hash2                  0                       # Class of executed instruction
system.cpu.op_class::SimdSha256Hash                 0                       # Class of executed instruction
system.cpu.op_class::SimdSha256Hash2                0                       # Class of executed instruction
system.cpu.op_class::SimdShaSigma2                  0                       # Class of executed instruction
system.cpu.op_class::SimdShaSigma3                  0                       # Class of executed instruction
system.cpu.op_class::SimdPredAlu                    0                       # Class of executed instruction
system.cpu.op_class::MemRead                        0                       # Class of executed instruction
system.cpu.op_class::MemWrite                       0                       # Class of executed instruction
system.cpu.op_class::FloatMemRead                   0                       # Class of executed instruction
system.cpu.op_class::FloatMemWrite                  0                       # Class of executed instruction
system.cpu.op_class::IprAccess                      0                       # Class of executed instruction
system.cpu.op_class::InstPrefetch                   0                       # Class of executed instruction
system.cpu.op_class::total                          0                       # Class of executed instruction
system.cpu.workload.numSyscalls                   164                       # Number of system calls
system.membus.snoop_filter.hit_multi_requests            0                       # Number of requests hitting in the snoop filter with multiple (>1) holders of the requested data.
system.membus.snoop_filter.hit_multi_snoops            0                       # Number of snoops hitting in the snoop filter with multiple (>1) holders of the requested data.
system.membus.snoop_filter.hit_single_requests       102690                       # Number of requests hitting in the snoop filter with a single holder of the requested data.
system.membus.snoop_filter.hit_single_snoops            0                       # Number of snoops hitting in the snoop filter with a single holder of the requested data.
system.membus.snoop_filter.tot_requests        205353                       # Total number of requests made to the snoop filter.
system.membus.snoop_filter.tot_snoops               0                       # Total number of snoops made to the snoop filter.
system.switch_cpus.committedInsts                   0                       # Number of instructions committed
system.switch_cpus.committedOps                     0                       # Number of ops (including micro ops) committed
system.switch_cpus.dtb.rdAccesses                   0                       # TLB accesses on read requests
system.switch_cpus.dtb.rdMisses                     0                       # TLB misses on read requests
system.switch_cpus.dtb.wrAccesses                   0                       # TLB accesses on write requests
system.switch_cpus.dtb.wrMisses                     0                       # TLB misses on write requests
system.switch_cpus.idle_fraction                    0                       # Percentage of idle cycles
system.switch_cpus.itb.rdAccesses                   0                       # TLB accesses on read requests
system.switch_cpus.itb.rdMisses                     0                       # TLB misses on read requests
system.switch_cpus.itb.wrAccesses                   0                       # TLB accesses on write requests
system.switch_cpus.itb.wrMisses                     0                       # TLB misses on write requests
system.switch_cpus.not_idle_fraction                1                       # Percentage of non-idle cycles
system.switch_cpus.numCycles                        0                       # number of cpu cycles simulated
system.switch_cpus.numWorkItemsCompleted            0                       # number of work items this cpu completed
system.switch_cpus.numWorkItemsStarted              0                       # number of work items this cpu started
system.switch_cpus.num_busy_cycles                  0                       # Number of busy cycles
system.switch_cpus.num_conditional_control_insts            0                       # number of instructions that are conditional controls
system.switch_cpus.num_fp_alu_accesses              0                       # Number of float alu accesses
system.switch_cpus.num_fp_insts                     0                       # number of float instructions
system.switch_cpus.num_fp_register_reads            0                       # number of times the floating registers were read
system.switch_cpus.num_fp_register_writes            0                       # number of times the floating registers were written
system.switch_cpus.num_func_calls                   0                       # number of times a function call or return occured
system.switch_cpus.num_idle_cycles                  0                       # Number of idle cycles
system.switch_cpus.num_int_alu_accesses             0                       # Number of integer alu accesses
system.switch_cpus.num_int_insts                    0                       # number of integer instructions
system.switch_cpus.num_int_register_reads            0                       # number of times the integer registers were read
system.switch_cpus.num_int_register_writes            0                       # number of times the integer registers were written
system.switch_cpus.num_load_insts                   0                       # Number of load instructions
system.switch_cpus.num_mem_refs                     0                       # number of memory refs
system.switch_cpus.num_store_insts                  0                       # Number of store instructions
system.switch_cpus.num_vec_alu_accesses             0                       # Number of vector alu accesses
system.switch_cpus.num_vec_insts                    0                       # number of vector instructions
system.switch_cpus.num_vec_register_reads            0                       # number of times the vector registers were read
system.switch_cpus.num_vec_register_writes            0                       # number of times the vector registers were written
system.switch_cpus.op_class::No_OpClass             0                       # Class of executed instruction
system.switch_cpus.op_class::IntAlu                 0                       # Class of executed instruction
system.switch_cpus.op_class::IntMult                0                       # Class of executed instruction
system.switch_cpus.op_class::IntDiv                 0                       # Class of executed instruction
system.switch_cpus.op_class::FloatAdd               0                       # Class of executed instruction
system.switch_cpus.op_class::FloatCmp               0                       # Class of executed instruction
system.switch_cpus.op_class::FloatCvt               0                       # Class of executed instruction
system.switch_cpus.op_class::FloatMult              0                       # Class of executed instruction
system.switch_cpus.op_class::FloatMultAcc            0                       # Class of executed instruction
system.switch_cpus.op_class::FloatDiv               0                       # Class of executed instruction
system.switch_cpus.op_class::FloatMisc              0                       # Class of executed instruction
system.switch_cpus.op_class::FloatSqrt              0                       # Class of executed instruction
system.switch_cpus.op_class::SimdAdd                0                       # Class of executed instruction
system.switch_cpus.op_class::SimdAddAcc             0                       # Class of executed instruction
system.switch_cpus.op_class::SimdAlu                0                       # Class of executed instruction
system.switch_cpus.op_class::SimdCmp                0                       # Class of executed instruction
system.switch_cpus.op_class::SimdCvt                0                       # Class of executed instruction
system.switch_cpus.op_class::SimdMisc               0                       # Class of executed instruction
system.switch_cpus.op_class::SimdMult               0                       # Class of executed instruction
system.switch_cpus.op_class::SimdMultAcc            0                       # Class of executed instruction
system.switch_cpus.op_class::SimdShift              0                       # Class of executed instruction
system.switch_cpus.op_class::SimdShiftAcc            0                       # Class of executed instruction
system.switch_cpus.op_class::SimdDiv                0                       # Class of executed instruction
system.switch_cpus.op_class::SimdSqrt               0                       # Class of executed instruction
system.switch_cpus.op_class::SimdFloatAdd            0                       # Class of executed instruction
system.switch_cpus.op_class::SimdFloatAlu            0                       # Class of executed instruction
system.switch_cpus.op_class::SimdFloatCmp            0                       # Class of executed instruction
system.switch_cpus.op_class::SimdFloatCvt            0                       # Class of executed instruction
system.switch_cpus.op_class::SimdFloatDiv            0                       # Class of executed instruction
system.switch_cpus.op_class::SimdFloatMisc            0                       # Class of executed instruction
system.switch_cpus.op_class::SimdFloatMult            0                       # Class of executed instruction
system.switch_cpus.op_class::SimdFloatMultAcc            0                       # Class of executed instruction
system.switch_cpus.op_class::SimdFloatSqrt            0                       # Class of executed instruction
system.switch_cpus.op_class::SimdReduceAdd            0                       # Class of executed instruction
system.switch_cpus.op_class::SimdReduceAlu            0                       # Class of executed instruction
system.switch_cpus.op_class::SimdReduceCmp            0                       # Class of executed instruction
system.switch_cpus.op_class::SimdFloatReduceAdd            0                       # Class of executed instruction
system.switch_cpus.op_class::SimdFloatReduceCmp            0                       # Class of executed instruction
system.switch_cpus.op_class::SimdAes                0                       # Class of executed instruction
system.switch_cpus.op_class::SimdAesMix             0                       # Class of executed instruction
system.switch_cpus.op_class::SimdSha1Hash            0                       # Class of executed instruction
system.switch_cpus.op_class::SimdSha1Hash2            0                       # Class of executed instruction
system.switch_cpus.op_class::SimdSha256Hash            0                       # Class of executed instruction
system.switch_cpus.op_class::SimdSha256Hash2            0                       # Class of executed instruction
system.switch_cpus.op_class::SimdShaSigma2            0                       # Class of executed instruction
system.switch_cpus.op_class::SimdShaSigma3            0                       # Class of executed instruction
system.switch_cpus.op_class::SimdPredAlu            0                       # Class of executed instruction
system.switch_cpus.op_class::MemRead                0                       # Class of executed instruction
system.switch_cpus.op_class::MemWrite               0                       # Class of executed instruction
system.switch_cpus.op_class::FloatMemRead            0                       # Class of executed instruction
system.switch_cpus.op_class::FloatMemWrite            0                       # Class of executed instruction
system.switch_cpus.op_class::IprAccess              0                       # Class of executed instruction
system.switch_cpus.op_class::InstPrefetch            0                       # Class of executed instruction
system.switch_cpus.op_class::total                  0                       # Class of executed instruction
system.switch_cpus_1.branchPred.BTBCorrect            0                       # Number of correct BTB predictions (this stat may not work properly.
system.switch_cpus_1.branchPred.BTBHitPct          nan                       # BTB Hit Percentage
system.switch_cpus_1.branchPred.BTBHits             0                       # Number of BTB hits
system.switch_cpus_1.branchPred.BTBLookups            0                       # Number of BTB lookups
system.switch_cpus_1.branchPred.RASInCorrect          237                       # Number of incorrect RAS predictions.
system.switch_cpus_1.branchPred.condIncorrect      3557371                       # Number of conditional branches incorrect
system.switch_cpus_1.branchPred.condPredicted     62167536                       # Number of conditional branches predicted
system.switch_cpus_1.branchPred.indirectHits     22548200                       # Number of indirect target hits.
system.switch_cpus_1.branchPred.indirectLookups     29726886                       # Number of indirect predictor lookups.
system.switch_cpus_1.branchPred.indirectMisses      7178686                       # Number of indirect misses.
system.switch_cpus_1.branchPred.lookups      72046206                       # Number of BP lookups
system.switch_cpus_1.branchPred.usedRAS       4835689                       # Number of times the RAS was used to get a target.
system.switch_cpus_1.branchPredindirectMispredicted      2943025                       # Number of mispredicted indirect branches.
system.switch_cpus_1.cc_regfile_reads       286840969                       # number of cc regfile reads
system.switch_cpus_1.cc_regfile_writes      155734468                       # number of cc regfile writes
system.switch_cpus_1.commit.amos                    0                       # Number of atomic instructions committed
system.switch_cpus_1.commit.branchMispredicts      3558387                       # The number of times a branch was mispredicted
system.switch_cpus_1.commit.branches         53455029                       # Number of branches committed
system.switch_cpus_1.commit.bw_lim_events     30236471                       # number cycles where commit BW limit reached
system.switch_cpus_1.commit.commitNonSpecStalls          164                       # The number of times commit has been forced to stall to communicate backwards
system.switch_cpus_1.commit.commitSquashedInsts     99311017                       # The number of squashed insts skipped by commit
system.switch_cpus_1.commit.committedInsts    250000000                       # Number of instructions committed
system.switch_cpus_1.commit.committedOps    485475175                       # Number of ops (including micro ops) committed
system.switch_cpus_1.commit.committed_per_cycle::samples    171286046                       # Number of insts commited each cycle
system.switch_cpus_1.commit.committed_per_cycle::mean     2.834295                       # Number of insts commited each cycle
system.switch_cpus_1.commit.committed_per_cycle::stdev     2.948166                       # Number of insts commited each cycle
system.switch_cpus_1.commit.committed_per_cycle::underflows            0      0.00%      0.00% # Number of insts commited each cycle
system.switch_cpus_1.commit.committed_per_cycle::0     55498778     32.40%     32.40% # Number of insts commited each cycle
system.switch_cpus_1.commit.committed_per_cycle::1     23166495     13.53%     45.93% # Number of insts commited each cycle
system.switch_cpus_1.commit.committed_per_cycle::2     17033802      9.94%     55.87% # Number of insts commited each cycle
system.switch_cpus_1.commit.committed_per_cycle::3     21296118     12.43%     68.30% # Number of insts commited each cycle
system.switch_cpus_1.commit.committed_per_cycle::4      8331234      4.86%     73.17% # Number of insts commited each cycle
system.switch_cpus_1.commit.committed_per_cycle::5      7473455      4.36%     77.53% # Number of insts commited each cycle
system.switch_cpus_1.commit.committed_per_cycle::6      5979108      3.49%     81.02% # Number of insts commited each cycle
system.switch_cpus_1.commit.committed_per_cycle::7      2270585      1.33%     82.35% # Number of insts commited each cycle
system.switch_cpus_1.commit.committed_per_cycle::8     30236471     17.65%    100.00% # Number of insts commited each cycle
system.switch_cpus_1.commit.committed_per_cycle::overflows            0      0.00%    100.00% # Number of insts commited each cycle
system.switch_cpus_1.commit.committed_per_cycle::min_value            0                       # Number of insts commited each cycle
system.switch_cpus_1.commit.committed_per_cycle::max_value            8                       # Number of insts commited each cycle
system.switch_cpus_1.commit.committed_per_cycle::total    171286046                       # Number of insts commited each cycle
system.switch_cpus_1.commit.fp_insts          8240809                       # Number of committed floating point instructions.
system.switch_cpus_1.commit.function_calls      3371427                       # Number of function calls committed.
system.switch_cpus_1.commit.int_insts       478606548                       # Number of committed integer instructions.
system.switch_cpus_1.commit.loads            58771653                       # Number of loads committed
system.switch_cpus_1.commit.membars                 0                       # Number of memory barriers committed
system.switch_cpus_1.commit.op_class_0::No_OpClass      2274108      0.47%      0.47% # Class of committed instruction
system.switch_cpus_1.commit.op_class_0::IntAlu    374564349     77.15%     77.62% # Class of committed instruction
system.switch_cpus_1.commit.op_class_0::IntMult       385147      0.08%     77.70% # Class of committed instruction
system.switch_cpus_1.commit.op_class_0::IntDiv       694599      0.14%     77.85% # Class of committed instruction
system.switch_cpus_1.commit.op_class_0::FloatAdd       288539      0.06%     77.90% # Class of committed instruction
system.switch_cpus_1.commit.op_class_0::FloatCmp            0      0.00%     77.90% # Class of committed instruction
system.switch_cpus_1.commit.op_class_0::FloatCvt            0      0.00%     77.90% # Class of committed instruction
system.switch_cpus_1.commit.op_class_0::FloatMult            0      0.00%     77.90% # Class of committed instruction
system.switch_cpus_1.commit.op_class_0::FloatMultAcc            0      0.00%     77.90% # Class of committed instruction
system.switch_cpus_1.commit.op_class_0::FloatDiv            0      0.00%     77.90% # Class of committed instruction
system.switch_cpus_1.commit.op_class_0::FloatMisc            0      0.00%     77.90% # Class of committed instruction
system.switch_cpus_1.commit.op_class_0::FloatSqrt            0      0.00%     77.90% # Class of committed instruction
system.switch_cpus_1.commit.op_class_0::SimdAdd            0      0.00%     77.90% # Class of committed instruction
system.switch_cpus_1.commit.op_class_0::SimdAddAcc            0      0.00%     77.90% # Class of committed instruction
system.switch_cpus_1.commit.op_class_0::SimdAlu       144192      0.03%     77.93% # Class of committed instruction
system.switch_cpus_1.commit.op_class_0::SimdCmp            0      0.00%     77.93% # Class of committed instruction
system.switch_cpus_1.commit.op_class_0::SimdCvt      1832450      0.38%     78.31% # Class of committed instruction
system.switch_cpus_1.commit.op_class_0::SimdMisc      3852223      0.79%     79.11% # Class of committed instruction
system.switch_cpus_1.commit.op_class_0::SimdMult            0      0.00%     79.11% # Class of committed instruction
system.switch_cpus_1.commit.op_class_0::SimdMultAcc            0      0.00%     79.11% # Class of committed instruction
system.switch_cpus_1.commit.op_class_0::SimdShift            0      0.00%     79.11% # Class of committed instruction
system.switch_cpus_1.commit.op_class_0::SimdShiftAcc            0      0.00%     79.11% # Class of committed instruction
system.switch_cpus_1.commit.op_class_0::SimdDiv            0      0.00%     79.11% # Class of committed instruction
system.switch_cpus_1.commit.op_class_0::SimdSqrt            0      0.00%     79.11% # Class of committed instruction
system.switch_cpus_1.commit.op_class_0::SimdFloatAdd            0      0.00%     79.11% # Class of committed instruction
system.switch_cpus_1.commit.op_class_0::SimdFloatAlu            0      0.00%     79.11% # Class of committed instruction
system.switch_cpus_1.commit.op_class_0::SimdFloatCmp            0      0.00%     79.11% # Class of committed instruction
system.switch_cpus_1.commit.op_class_0::SimdFloatCvt            0      0.00%     79.11% # Class of committed instruction
system.switch_cpus_1.commit.op_class_0::SimdFloatDiv            0      0.00%     79.11% # Class of committed instruction
system.switch_cpus_1.commit.op_class_0::SimdFloatMisc            0      0.00%     79.11% # Class of committed instruction
system.switch_cpus_1.commit.op_class_0::SimdFloatMult            0      0.00%     79.11% # Class of committed instruction
system.switch_cpus_1.commit.op_class_0::SimdFloatMultAcc            0      0.00%     79.11% # Class of committed instruction
system.switch_cpus_1.commit.op_class_0::SimdFloatSqrt            0      0.00%     79.11% # Class of committed instruction
system.switch_cpus_1.commit.op_class_0::SimdReduceAdd            0      0.00%     79.11% # Class of committed instruction
system.switch_cpus_1.commit.op_class_0::SimdReduceAlu            0      0.00%     79.11% # Class of committed instruction
system.switch_cpus_1.commit.op_class_0::SimdReduceCmp            0      0.00%     79.11% # Class of committed instruction
system.switch_cpus_1.commit.op_class_0::SimdFloatReduceAdd            0      0.00%     79.11% # Class of committed instruction
system.switch_cpus_1.commit.op_class_0::SimdFloatReduceCmp            0      0.00%     79.11% # Class of committed instruction
system.switch_cpus_1.commit.op_class_0::SimdAes            0      0.00%     79.11% # Class of committed instruction
system.switch_cpus_1.commit.op_class_0::SimdAesMix            0      0.00%     79.11% # Class of committed instruction
system.switch_cpus_1.commit.op_class_0::SimdSha1Hash            0      0.00%     79.11% # Class of committed instruction
system.switch_cpus_1.commit.op_class_0::SimdSha1Hash2            0      0.00%     79.11% # Class of committed instruction
system.switch_cpus_1.commit.op_class_0::SimdSha256Hash            0      0.00%     79.11% # Class of committed instruction
system.switch_cpus_1.commit.op_class_0::SimdSha256Hash2            0      0.00%     79.11% # Class of committed instruction
system.switch_cpus_1.commit.op_class_0::SimdShaSigma2            0      0.00%     79.11% # Class of committed instruction
system.switch_cpus_1.commit.op_class_0::SimdShaSigma3            0      0.00%     79.11% # Class of committed instruction
system.switch_cpus_1.commit.op_class_0::SimdPredAlu            0      0.00%     79.11% # Class of committed instruction
system.switch_cpus_1.commit.op_class_0::MemRead     56939203     11.73%     90.83% # Class of committed instruction
system.switch_cpus_1.commit.op_class_0::MemWrite     42665499      8.79%     99.62% # Class of committed instruction
system.switch_cpus_1.commit.op_class_0::FloatMemRead      1832450      0.38%    100.00% # Class of committed instruction
system.switch_cpus_1.commit.op_class_0::FloatMemWrite         2416      0.00%    100.00% # Class of committed instruction
system.switch_cpus_1.commit.op_class_0::IprAccess            0      0.00%    100.00% # Class of committed instruction
system.switch_cpus_1.commit.op_class_0::InstPrefetch            0      0.00%    100.00% # Class of committed instruction
system.switch_cpus_1.commit.op_class_0::total    485475175                       # Class of committed instruction
system.switch_cpus_1.commit.refs            101439568                       # Number of memory references committed
system.switch_cpus_1.commit.swp_count               0                       # Number of s/w prefetches committed
system.switch_cpus_1.commit.vec_insts               0                       # Number of committed Vector instructions.
system.switch_cpus_1.committedInsts         250000000                       # Number of Instructions Simulated
system.switch_cpus_1.committedOps           485475175                       # Number of Ops (including micro ops) Simulated
system.switch_cpus_1.cpi                     0.745317                       # CPI: Cycles Per Instruction
system.switch_cpus_1.cpi_total               0.745317                       # CPI: Total CPI of All Threads
system.switch_cpus_1.decode.BlockedCycles     32131880                       # Number of cycles decode is blocked
system.switch_cpus_1.decode.DecodedInsts    634819835                       # Number of instructions handled by decode
system.switch_cpus_1.decode.IdleCycles       51060310                       # Number of cycles decode is idle
system.switch_cpus_1.decode.RunCycles        94777493                       # Number of cycles decode is running
system.switch_cpus_1.decode.SquashCycles      3563762                       # Number of cycles decode is squashing
system.switch_cpus_1.decode.UnblockCycles      4416854                       # Number of cycles decode is unblocking
system.switch_cpus_1.dtb.rdAccesses          66477240                       # TLB accesses on read requests
system.switch_cpus_1.dtb.rdMisses              345866                       # TLB misses on read requests
system.switch_cpus_1.dtb.wrAccesses          45910342                       # TLB accesses on write requests
system.switch_cpus_1.dtb.wrMisses               26424                       # TLB misses on write requests
system.switch_cpus_1.fetch.Branches          72046206                       # Number of branches that fetch encountered
system.switch_cpus_1.fetch.CacheLines        48976947                       # Number of cache lines fetched
system.switch_cpus_1.fetch.Cycles           127237444                       # Number of cycles fetch has run and was not squashing or blocked
system.switch_cpus_1.fetch.IcacheSquashes       915727                       # Number of outstanding Icache misses that were squashed
system.switch_cpus_1.fetch.IcacheWaitRetryStallCycles          202                       # Number of stall cycles due to full MSHR
system.switch_cpus_1.fetch.Insts            337778893                       # Number of instructions fetch has processed
system.switch_cpus_1.fetch.MiscStallCycles         1360                       # Number of cycles fetch has spent waiting on interrupts, or bad addresses, or out of MSHRs
system.switch_cpus_1.fetch.PendingTrapStallCycles         7633                       # Number of stall cycles due to pending traps
system.switch_cpus_1.fetch.SquashCycles       7127524                       # Number of cycles fetch has spent squashing
system.switch_cpus_1.fetch.branchRate        0.386661                       # Number of branch fetches per cycle
system.switch_cpus_1.fetch.icacheStallCycles     55139905                       # Number of cycles fetch is stalled on an Icache miss
system.switch_cpus_1.fetch.predictedBranches     27383889                       # Number of branches that fetch has predicted taken
system.switch_cpus_1.fetch.rate              1.812807                       # Number of inst fetches per cycle
system.switch_cpus_1.fetch.rateDist::samples    185950306                       # Number of instructions fetched each cycle (Total)
system.switch_cpus_1.fetch.rateDist::mean     3.521498                       # Number of instructions fetched each cycle (Total)
system.switch_cpus_1.fetch.rateDist::stdev     3.578456                       # Number of instructions fetched each cycle (Total)
system.switch_cpus_1.fetch.rateDist::underflows            0      0.00%      0.00% # Number of instructions fetched each cycle (Total)
system.switch_cpus_1.fetch.rateDist::0       80190710     43.12%     43.12% # Number of instructions fetched each cycle (Total)
system.switch_cpus_1.fetch.rateDist::1        6589002      3.54%     46.67% # Number of instructions fetched each cycle (Total)
system.switch_cpus_1.fetch.rateDist::2        8075912      4.34%     51.01% # Number of instructions fetched each cycle (Total)
system.switch_cpus_1.fetch.rateDist::3        6740578      3.62%     54.64% # Number of instructions fetched each cycle (Total)
system.switch_cpus_1.fetch.rateDist::4        6473994      3.48%     58.12% # Number of instructions fetched each cycle (Total)
system.switch_cpus_1.fetch.rateDist::5        7467365      4.02%     62.13% # Number of instructions fetched each cycle (Total)
system.switch_cpus_1.fetch.rateDist::6        5491514      2.95%     65.09% # Number of instructions fetched each cycle (Total)
system.switch_cpus_1.fetch.rateDist::7        3690701      1.98%     67.07% # Number of instructions fetched each cycle (Total)
system.switch_cpus_1.fetch.rateDist::8       61230530     32.93%    100.00% # Number of instructions fetched each cycle (Total)
system.switch_cpus_1.fetch.rateDist::overflows            0      0.00%    100.00% # Number of instructions fetched each cycle (Total)
system.switch_cpus_1.fetch.rateDist::min_value            0                       # Number of instructions fetched each cycle (Total)
system.switch_cpus_1.fetch.rateDist::max_value            8                       # Number of instructions fetched each cycle (Total)
system.switch_cpus_1.fetch.rateDist::total    185950306                       # Number of instructions fetched each cycle (Total)
system.switch_cpus_1.fp_regfile_reads        14807646                       # number of floating regfile reads
system.switch_cpus_1.fp_regfile_writes        7892981                       # number of floating regfile writes
system.switch_cpus_1.idleCycles                378947                       # Total number of cycles that the CPU has spent unscheduled due to idling
system.switch_cpus_1.iew.branchMispredicts      4669089                       # Number of branch mispredicts detected at execute
system.switch_cpus_1.iew.exec_branches       57637716                       # Number of branches executed
system.switch_cpus_1.iew.exec_nop                   0                       # number of nop insts executed
system.switch_cpus_1.iew.exec_rate           2.908399                       # Inst execution rate
system.switch_cpus_1.iew.exec_refs          112311298                       # number of memory reference insts executed
system.switch_cpus_1.iew.exec_stores         45885752                       # Number of stores executed
system.switch_cpus_1.iew.exec_swp                   0                       # number of swp insts executed
system.switch_cpus_1.iew.iewBlockCycles      11677806                       # Number of cycles IEW is blocking
system.switch_cpus_1.iew.iewDispLoadInsts     72342791                       # Number of dispatched load instructions
system.switch_cpus_1.iew.iewDispNonSpecInsts        48973                       # Number of dispatched non-speculative instructions
system.switch_cpus_1.iew.iewDispSquashedInsts        59548                       # Number of squashed instructions skipped by dispatch
system.switch_cpus_1.iew.iewDispStoreInsts     50984480                       # Number of dispatched store instructions
system.switch_cpus_1.iew.iewDispatchedInsts    584862450                       # Number of instructions dispatched to IQ
system.switch_cpus_1.iew.iewExecLoadInsts     66425546                       # Number of load instructions executed
system.switch_cpus_1.iew.iewExecSquashedInsts      9309892                       # Number of squashed instructions skipped in execute
system.switch_cpus_1.iew.iewExecutedInsts    541919892                       # Number of executed instructions
system.switch_cpus_1.iew.iewIQFullEvents        14880                       # Number of times the IQ has become full, causing a stall
system.switch_cpus_1.iew.iewIdleCycles              0                       # Number of cycles IEW is idle
system.switch_cpus_1.iew.iewLSQFullEvents       197949                       # Number of times the LSQ has become full, causing a stall
system.switch_cpus_1.iew.iewSquashCycles      3563762                       # Number of cycles IEW is squashing
system.switch_cpus_1.iew.iewUnblockCycles       227318                       # Number of cycles IEW is unblocking
system.switch_cpus_1.iew.lsq.thread0.blockedLoads            0                       # Number of blocked loads due to partial load-store forwarding
system.switch_cpus_1.iew.lsq.thread0.cacheBlocked           14                       # Number of times an access to memory failed due to the cache being blocked
system.switch_cpus_1.iew.lsq.thread0.forwLoads      8137962                       # Number of loads that had data forwarded from stores
system.switch_cpus_1.iew.lsq.thread0.ignoredResponses       137734                       # Number of memory responses ignored because the instruction is squashed
system.switch_cpus_1.iew.lsq.thread0.invAddrLoads            0                       # Number of loads ignored due to an invalid address
system.switch_cpus_1.iew.lsq.thread0.invAddrSwpfs            0                       # Number of software prefetches ignored due to an invalid address
system.switch_cpus_1.iew.lsq.thread0.memOrderViolation         6389                       # Number of memory ordering violations
system.switch_cpus_1.iew.lsq.thread0.rescheduledLoads        66677                       # Number of loads that were rescheduled
system.switch_cpus_1.iew.lsq.thread0.squashedLoads     13571129                       # Number of loads squashed
system.switch_cpus_1.iew.lsq.thread0.squashedStores      8316564                       # Number of stores squashed
system.switch_cpus_1.iew.memOrderViolationEvents         6389                       # Number of memory order violations
system.switch_cpus_1.iew.predictedNotTakenIncorrect      4504954                       # Number of branches that were predicted not taken incorrectly
system.switch_cpus_1.iew.predictedTakenIncorrect       164135                       # Number of branches that were predicted taken incorrectly
system.switch_cpus_1.iew.wb_consumers       611216756                       # num instructions consuming a value
system.switch_cpus_1.iew.wb_count           538383622                       # cumulative count of insts written-back
system.switch_cpus_1.iew.wb_fanout           0.633337                       # average fanout of values written-back
system.switch_cpus_1.iew.wb_producers       387106476                       # num instructions producing a value
system.switch_cpus_1.iew.wb_rate             2.889421                       # insts written-back per cycle
system.switch_cpus_1.iew.wb_sent            539984912                       # cumulative count of insts sent to commit
system.switch_cpus_1.int_regfile_reads      802606683                       # number of integer regfile reads
system.switch_cpus_1.int_regfile_writes     426785926                       # number of integer regfile writes
system.switch_cpus_1.ipc                     1.341711                       # IPC: Instructions Per Cycle
system.switch_cpus_1.ipc_total               1.341711                       # IPC: Total IPC of All Threads
system.switch_cpus_1.iq.FU_type_0::No_OpClass      3665351      0.66%      0.66% # Type of FU issued
system.switch_cpus_1.iq.FU_type_0::IntAlu    423385564     76.81%     77.47% # Type of FU issued
system.switch_cpus_1.iq.FU_type_0::IntMult       415762      0.08%     77.55% # Type of FU issued
system.switch_cpus_1.iq.FU_type_0::IntDiv       721628      0.13%     77.68% # Type of FU issued
system.switch_cpus_1.iq.FU_type_0::FloatAdd       288546      0.05%     77.73% # Type of FU issued
system.switch_cpus_1.iq.FU_type_0::FloatCmp            0      0.00%     77.73% # Type of FU issued
system.switch_cpus_1.iq.FU_type_0::FloatCvt            0      0.00%     77.73% # Type of FU issued
system.switch_cpus_1.iq.FU_type_0::FloatMult            0      0.00%     77.73% # Type of FU issued
system.switch_cpus_1.iq.FU_type_0::FloatMultAcc            0      0.00%     77.73% # Type of FU issued
system.switch_cpus_1.iq.FU_type_0::FloatDiv            0      0.00%     77.73% # Type of FU issued
system.switch_cpus_1.iq.FU_type_0::FloatMisc            0      0.00%     77.73% # Type of FU issued
system.switch_cpus_1.iq.FU_type_0::FloatSqrt            0      0.00%     77.73% # Type of FU issued
system.switch_cpus_1.iq.FU_type_0::SimdAdd            0      0.00%     77.73% # Type of FU issued
system.switch_cpus_1.iq.FU_type_0::SimdAddAcc            0      0.00%     77.73% # Type of FU issued
system.switch_cpus_1.iq.FU_type_0::SimdAlu       146822      0.03%     77.76% # Type of FU issued
system.switch_cpus_1.iq.FU_type_0::SimdCmp           60      0.00%     77.76% # Type of FU issued
system.switch_cpus_1.iq.FU_type_0::SimdCvt      2477875      0.45%     78.21% # Type of FU issued
system.switch_cpus_1.iq.FU_type_0::SimdMisc      4358790      0.79%     79.00% # Type of FU issued
system.switch_cpus_1.iq.FU_type_0::SimdMult            0      0.00%     79.00% # Type of FU issued
system.switch_cpus_1.iq.FU_type_0::SimdMultAcc            0      0.00%     79.00% # Type of FU issued
system.switch_cpus_1.iq.FU_type_0::SimdShift            0      0.00%     79.00% # Type of FU issued
system.switch_cpus_1.iq.FU_type_0::SimdShiftAcc            0      0.00%     79.00% # Type of FU issued
system.switch_cpus_1.iq.FU_type_0::SimdDiv            0      0.00%     79.00% # Type of FU issued
system.switch_cpus_1.iq.FU_type_0::SimdSqrt            0      0.00%     79.00% # Type of FU issued
system.switch_cpus_1.iq.FU_type_0::SimdFloatAdd            0      0.00%     79.00% # Type of FU issued
system.switch_cpus_1.iq.FU_type_0::SimdFloatAlu            0      0.00%     79.00% # Type of FU issued
system.switch_cpus_1.iq.FU_type_0::SimdFloatCmp            0      0.00%     79.00% # Type of FU issued
system.switch_cpus_1.iq.FU_type_0::SimdFloatCvt            0      0.00%     79.00% # Type of FU issued
system.switch_cpus_1.iq.FU_type_0::SimdFloatDiv            0      0.00%     79.00% # Type of FU issued
system.switch_cpus_1.iq.FU_type_0::SimdFloatMisc            0      0.00%     79.00% # Type of FU issued
system.switch_cpus_1.iq.FU_type_0::SimdFloatMult            0      0.00%     79.00% # Type of FU issued
system.switch_cpus_1.iq.FU_type_0::SimdFloatMultAcc            0      0.00%     79.00% # Type of FU issued
system.switch_cpus_1.iq.FU_type_0::SimdFloatSqrt            0      0.00%     79.00% # Type of FU issued
system.switch_cpus_1.iq.FU_type_0::SimdReduceAdd            0      0.00%     79.00% # Type of FU issued
system.switch_cpus_1.iq.FU_type_0::SimdReduceAlu            0      0.00%     79.00% # Type of FU issued
system.switch_cpus_1.iq.FU_type_0::SimdReduceCmp            0      0.00%     79.00% # Type of FU issued
system.switch_cpus_1.iq.FU_type_0::SimdFloatReduceAdd            0      0.00%     79.00% # Type of FU issued
system.switch_cpus_1.iq.FU_type_0::SimdFloatReduceCmp            0      0.00%     79.00% # Type of FU issued
system.switch_cpus_1.iq.FU_type_0::SimdAes            0      0.00%     79.00% # Type of FU issued
system.switch_cpus_1.iq.FU_type_0::SimdAesMix            0      0.00%     79.00% # Type of FU issued
system.switch_cpus_1.iq.FU_type_0::SimdSha1Hash            0      0.00%     79.00% # Type of FU issued
system.switch_cpus_1.iq.FU_type_0::SimdSha1Hash2            0      0.00%     79.00% # Type of FU issued
system.switch_cpus_1.iq.FU_type_0::SimdSha256Hash            0      0.00%     79.00% # Type of FU issued
system.switch_cpus_1.iq.FU_type_0::SimdSha256Hash2            0      0.00%     79.00% # Type of FU issued
system.switch_cpus_1.iq.FU_type_0::SimdShaSigma2            0      0.00%     79.00% # Type of FU issued
system.switch_cpus_1.iq.FU_type_0::SimdShaSigma3            0      0.00%     79.00% # Type of FU issued
system.switch_cpus_1.iq.FU_type_0::SimdPredAlu            0      0.00%     79.00% # Type of FU issued
system.switch_cpus_1.iq.FU_type_0::MemRead     65097314     11.81%     90.81% # Type of FU issued
system.switch_cpus_1.iq.FU_type_0::MemWrite     47050133      8.54%     99.34% # Type of FU issued
system.switch_cpus_1.iq.FU_type_0::FloatMemRead      2997994      0.54%     99.89% # Type of FU issued
system.switch_cpus_1.iq.FU_type_0::FloatMemWrite       623948      0.11%    100.00% # Type of FU issued
system.switch_cpus_1.iq.FU_type_0::IprAccess            0      0.00%    100.00% # Type of FU issued
system.switch_cpus_1.iq.FU_type_0::InstPrefetch            0      0.00%    100.00% # Type of FU issued
system.switch_cpus_1.iq.FU_type_0::total    551229787                       # Type of FU issued
system.switch_cpus_1.iq.fp_alu_accesses      11423332                       # Number of floating point alu accesses
system.switch_cpus_1.iq.fp_inst_queue_reads     22741320                       # Number of floating instruction queue reads
system.switch_cpus_1.iq.fp_inst_queue_wakeup_accesses     10471730                       # Number of floating instruction queue wakeup accesses
system.switch_cpus_1.iq.fp_inst_queue_writes     16964265                       # Number of floating instruction queue writes
system.switch_cpus_1.iq.fu_busy_cnt           7277368                       # FU busy when requested
system.switch_cpus_1.iq.fu_busy_rate         0.013202                       # FU busy rate (busy events/executed inst)
system.switch_cpus_1.iq.fu_full::No_OpClass            0      0.00%      0.00% # attempts to use FU when none available
system.switch_cpus_1.iq.fu_full::IntAlu       6504152     89.38%     89.38% # attempts to use FU when none available
system.switch_cpus_1.iq.fu_full::IntMult            0      0.00%     89.38% # attempts to use FU when none available
system.switch_cpus_1.iq.fu_full::IntDiv             0      0.00%     89.38% # attempts to use FU when none available
system.switch_cpus_1.iq.fu_full::FloatAdd            0      0.00%     89.38% # attempts to use FU when none available
system.switch_cpus_1.iq.fu_full::FloatCmp            0      0.00%     89.38% # attempts to use FU when none available
system.switch_cpus_1.iq.fu_full::FloatCvt            0      0.00%     89.38% # attempts to use FU when none available
system.switch_cpus_1.iq.fu_full::FloatMult            0      0.00%     89.38% # attempts to use FU when none available
system.switch_cpus_1.iq.fu_full::FloatMultAcc            0      0.00%     89.38% # attempts to use FU when none available
system.switch_cpus_1.iq.fu_full::FloatDiv            0      0.00%     89.38% # attempts to use FU when none available
system.switch_cpus_1.iq.fu_full::FloatMisc            0      0.00%     89.38% # attempts to use FU when none available
system.switch_cpus_1.iq.fu_full::FloatSqrt            0      0.00%     89.38% # attempts to use FU when none available
system.switch_cpus_1.iq.fu_full::SimdAdd            0      0.00%     89.38% # attempts to use FU when none available
system.switch_cpus_1.iq.fu_full::SimdAddAcc            0      0.00%     89.38% # attempts to use FU when none available
system.switch_cpus_1.iq.fu_full::SimdAlu          170      0.00%     89.38% # attempts to use FU when none available
system.switch_cpus_1.iq.fu_full::SimdCmp            0      0.00%     89.38% # attempts to use FU when none available
system.switch_cpus_1.iq.fu_full::SimdCvt        45567      0.63%     90.00% # attempts to use FU when none available
system.switch_cpus_1.iq.fu_full::SimdMisc            0      0.00%     90.00% # attempts to use FU when none available
system.switch_cpus_1.iq.fu_full::SimdMult            0      0.00%     90.00% # attempts to use FU when none available
system.switch_cpus_1.iq.fu_full::SimdMultAcc            0      0.00%     90.00% # attempts to use FU when none available
system.switch_cpus_1.iq.fu_full::SimdShift            0      0.00%     90.00% # attempts to use FU when none available
system.switch_cpus_1.iq.fu_full::SimdShiftAcc            0      0.00%     90.00% # attempts to use FU when none available
system.switch_cpus_1.iq.fu_full::SimdDiv            0      0.00%     90.00% # attempts to use FU when none available
system.switch_cpus_1.iq.fu_full::SimdSqrt            0      0.00%     90.00% # attempts to use FU when none available
system.switch_cpus_1.iq.fu_full::SimdFloatAdd            0      0.00%     90.00% # attempts to use FU when none available
system.switch_cpus_1.iq.fu_full::SimdFloatAlu            0      0.00%     90.00% # attempts to use FU when none available
system.switch_cpus_1.iq.fu_full::SimdFloatCmp            0      0.00%     90.00% # attempts to use FU when none available
system.switch_cpus_1.iq.fu_full::SimdFloatCvt            0      0.00%     90.00% # attempts to use FU when none available
system.switch_cpus_1.iq.fu_full::SimdFloatDiv            0      0.00%     90.00% # attempts to use FU when none available
system.switch_cpus_1.iq.fu_full::SimdFloatMisc            0      0.00%     90.00% # attempts to use FU when none available
system.switch_cpus_1.iq.fu_full::SimdFloatMult            0      0.00%     90.00% # attempts to use FU when none available
system.switch_cpus_1.iq.fu_full::SimdFloatMultAcc            0      0.00%     90.00% # attempts to use FU when none available
system.switch_cpus_1.iq.fu_full::SimdFloatSqrt            0      0.00%     90.00% # attempts to use FU when none available
system.switch_cpus_1.iq.fu_full::SimdReduceAdd            0      0.00%     90.00% # attempts to use FU when none available
system.switch_cpus_1.iq.fu_full::SimdReduceAlu            0      0.00%     90.00% # attempts to use FU when none available
system.switch_cpus_1.iq.fu_full::SimdReduceCmp            0      0.00%     90.00% # attempts to use FU when none available
system.switch_cpus_1.iq.fu_full::SimdFloatReduceAdd            0      0.00%     90.00% # attempts to use FU when none available
system.switch_cpus_1.iq.fu_full::SimdFloatReduceCmp            0      0.00%     90.00% # attempts to use FU when none available
system.switch_cpus_1.iq.fu_full::SimdAes            0      0.00%     90.00% # attempts to use FU when none available
system.switch_cpus_1.iq.fu_full::SimdAesMix            0      0.00%     90.00% # attempts to use FU when none available
system.switch_cpus_1.iq.fu_full::SimdSha1Hash            0      0.00%     90.00% # attempts to use FU when none available
system.switch_cpus_1.iq.fu_full::SimdSha1Hash2            0      0.00%     90.00% # attempts to use FU when none available
system.switch_cpus_1.iq.fu_full::SimdSha256Hash            0      0.00%     90.00% # attempts to use FU when none available
system.switch_cpus_1.iq.fu_full::SimdSha256Hash2            0      0.00%     90.00% # attempts to use FU when none available
system.switch_cpus_1.iq.fu_full::SimdShaSigma2            0      0.00%     90.00% # attempts to use FU when none available
system.switch_cpus_1.iq.fu_full::SimdShaSigma3            0      0.00%     90.00% # attempts to use FU when none available
system.switch_cpus_1.iq.fu_full::SimdPredAlu            0      0.00%     90.00% # attempts to use FU when none available
system.switch_cpus_1.iq.fu_full::MemRead       338595      4.65%     94.66% # attempts to use FU when none available
system.switch_cpus_1.iq.fu_full::MemWrite       193869      2.66%     97.32% # attempts to use FU when none available
system.switch_cpus_1.iq.fu_full::FloatMemRead         8920      0.12%     97.44% # attempts to use FU when none available
system.switch_cpus_1.iq.fu_full::FloatMemWrite       186095      2.56%    100.00% # attempts to use FU when none available
system.switch_cpus_1.iq.fu_full::IprAccess            0      0.00%    100.00% # attempts to use FU when none available
system.switch_cpus_1.iq.fu_full::InstPrefetch            0      0.00%    100.00% # attempts to use FU when none available
system.switch_cpus_1.iq.int_alu_accesses    543418472                       # Number of integer alu accesses
system.switch_cpus_1.iq.int_inst_queue_reads   1273773049                       # Number of integer instruction queue reads
system.switch_cpus_1.iq.int_inst_queue_wakeup_accesses    527911892                       # Number of integer instruction queue wakeup accesses
system.switch_cpus_1.iq.int_inst_queue_writes    667289719                       # Number of integer instruction queue writes
system.switch_cpus_1.iq.iqInstsAdded        584712395                       # Number of instructions added to the IQ (excludes non-spec)
system.switch_cpus_1.iq.iqInstsIssued       551229787                       # Number of instructions issued
system.switch_cpus_1.iq.iqNonSpecInstsAdded       150055                       # Number of non-speculative instructions added to the IQ
system.switch_cpus_1.iq.iqSquashedInstsExamined     99387170                       # Number of squashed instructions iterated over during squash; mainly for profiling
system.switch_cpus_1.iq.iqSquashedInstsIssued       827124                       # Number of squashed instructions issued
system.switch_cpus_1.iq.iqSquashedNonSpecRemoved       149891                       # Number of squashed non-spec instructions that were removed
system.switch_cpus_1.iq.iqSquashedOperandsExamined    143601766                       # Number of squashed operands that are examined and possibly removed from graph
system.switch_cpus_1.iq.issued_per_cycle::samples    185950306                       # Number of insts issued each cycle
system.switch_cpus_1.iq.issued_per_cycle::mean     2.964393                       # Number of insts issued each cycle
system.switch_cpus_1.iq.issued_per_cycle::stdev     2.531738                       # Number of insts issued each cycle
system.switch_cpus_1.iq.issued_per_cycle::underflows            0      0.00%      0.00% # Number of insts issued each cycle
system.switch_cpus_1.iq.issued_per_cycle::0     51845146     27.88%     27.88% # Number of insts issued each cycle
system.switch_cpus_1.iq.issued_per_cycle::1     15881714      8.54%     36.42% # Number of insts issued each cycle
system.switch_cpus_1.iq.issued_per_cycle::2     20847482     11.21%     47.63% # Number of insts issued each cycle
system.switch_cpus_1.iq.issued_per_cycle::3     18552184      9.98%     57.61% # Number of insts issued each cycle
system.switch_cpus_1.iq.issued_per_cycle::4     21038176     11.31%     68.92% # Number of insts issued each cycle
system.switch_cpus_1.iq.issued_per_cycle::5     18613310     10.01%     78.93% # Number of insts issued each cycle
system.switch_cpus_1.iq.issued_per_cycle::6     19875459     10.69%     89.62% # Number of insts issued each cycle
system.switch_cpus_1.iq.issued_per_cycle::7     12850131      6.91%     96.53% # Number of insts issued each cycle
system.switch_cpus_1.iq.issued_per_cycle::8      6446704      3.47%    100.00% # Number of insts issued each cycle
system.switch_cpus_1.iq.issued_per_cycle::overflows            0      0.00%    100.00% # Number of insts issued each cycle
system.switch_cpus_1.iq.issued_per_cycle::min_value            0                       # Number of insts issued each cycle
system.switch_cpus_1.iq.issued_per_cycle::max_value            8                       # Number of insts issued each cycle
system.switch_cpus_1.iq.issued_per_cycle::total    185950306                       # Number of insts issued each cycle
system.switch_cpus_1.iq.rate                 2.958364                       # Inst issue rate
system.switch_cpus_1.iq.vec_alu_accesses            0                       # Number of vector alu accesses
system.switch_cpus_1.iq.vec_inst_queue_reads            0                       # Number of vector instruction queue reads
system.switch_cpus_1.iq.vec_inst_queue_wakeup_accesses            0                       # Number of vector instruction queue wakeup accesses
system.switch_cpus_1.iq.vec_inst_queue_writes            0                       # Number of vector instruction queue writes
system.switch_cpus_1.itb.rdAccesses                 0                       # TLB accesses on read requests
system.switch_cpus_1.itb.rdMisses                   0                       # TLB misses on read requests
system.switch_cpus_1.itb.wrAccesses          48978108                       # TLB accesses on write requests
system.switch_cpus_1.itb.wrMisses                1201                       # TLB misses on write requests
system.switch_cpus_1.memDep0.conflictingLoads      1870109                       # Number of conflicting loads.
system.switch_cpus_1.memDep0.conflictingStores       717355                       # Number of conflicting stores.
system.switch_cpus_1.memDep0.insertedLoads     72342791                       # Number of loads inserted to the mem dependence unit.
system.switch_cpus_1.memDep0.insertedStores     50984480                       # Number of stores inserted to the mem dependence unit.
system.switch_cpus_1.misc_regfile_reads     230466375                       # number of misc regfile reads
system.switch_cpus_1.numCycles              186329253                       # number of cpu cycles simulated
system.switch_cpus_1.numWorkItemsCompleted            0                       # number of work items this cpu completed
system.switch_cpus_1.numWorkItemsStarted            0                       # number of work items this cpu started
system.switch_cpus_1.rename.BlockCycles      13240169                       # Number of cycles rename is blocking
system.switch_cpus_1.rename.CommittedMaps    533112573                       # Number of HB maps that are committed
system.switch_cpus_1.rename.IQFullEvents       638125                       # Number of times rename has blocked due to IQ full
system.switch_cpus_1.rename.IdleCycles       54072386                       # Number of cycles rename is idle
system.switch_cpus_1.rename.LQFullEvents     11005214                       # Number of times rename has blocked due to LQ full
system.switch_cpus_1.rename.ROBFullEvents        36646                       # Number of times rename has blocked due to ROB full
system.switch_cpus_1.rename.RenameLookups   1553861579                       # Number of register rename lookups that rename has made
system.switch_cpus_1.rename.RenamedInsts    617867596                       # Number of instructions processed by rename
system.switch_cpus_1.rename.RenamedOperands    672759278                       # Number of destination operands rename has renamed
system.switch_cpus_1.rename.RunCycles        95896158                       # Number of cycles rename is running
system.switch_cpus_1.rename.SQFullEvents      6971710                       # Number of times rename has blocked due to SQ full
system.switch_cpus_1.rename.SquashCycles      3563762                       # Number of cycles rename is squashing
system.switch_cpus_1.rename.UnblockCycles     19175273                       # Number of cycles rename is unblocking
system.switch_cpus_1.rename.UndoneMaps      139646532                       # Number of HB maps that are undone due to squashing
system.switch_cpus_1.rename.fp_rename_lookups     17920918                       # Number of floating rename lookups
system.switch_cpus_1.rename.int_rename_lookups    935734102                       # Number of integer rename lookups
system.switch_cpus_1.rename.serializeStallCycles         2551                       # count of cycles rename stalled for serializing inst
system.switch_cpus_1.rename.serializingInsts          174                       # count of serializing insts renamed
system.switch_cpus_1.rename.skidInsts         9934259                       # count of insts added to the skid buffer
system.switch_cpus_1.rename.tempSerializingInsts          174                       # count of temporary serializing insts renamed
system.switch_cpus_1.rob.rob_reads          725816020                       # The number of ROB reads
system.switch_cpus_1.rob.rob_writes        1184418172                       # The number of ROB writes
system.switch_cpus_1.timesIdled                 92783                       # Number of times that the entire CPU went into an idle state and unscheduled itself
system.tol2bus.snoop_filter.hit_multi_requests            0                       # Number of requests hitting in the snoop filter with multiple (>1) holders of the requested data.
system.tol2bus.snoop_filter.hit_multi_snoops            0                       # Number of snoops hitting in the snoop filter with multiple (>1) holders of the requested data.
system.tol2bus.snoop_filter.hit_single_requests       349199                       # Number of requests hitting in the snoop filter with a single holder of the requested data.
system.tol2bus.snoop_filter.hit_single_snoops          459                       # Number of snoops hitting in the snoop filter with a single holder of the requested data.
system.tol2bus.snoop_filter.tot_requests       691498                       # Total number of requests made to the snoop filter.
system.tol2bus.snoop_filter.tot_snoops            459                       # Total number of snoops made to the snoop filter.
system.tol3bus.snoop_filter.hit_multi_requests            0                       # Number of requests hitting in the snoop filter with multiple (>1) holders of the requested data.
system.tol3bus.snoop_filter.hit_multi_snoops            0                       # Number of snoops hitting in the snoop filter with multiple (>1) holders of the requested data.
system.tol3bus.snoop_filter.hit_single_requests       120455                       # Number of requests hitting in the snoop filter with a single holder of the requested data.
system.tol3bus.snoop_filter.hit_single_snoops         8684                       # Number of snoops hitting in the snoop filter with a single holder of the requested data.
system.tol3bus.snoop_filter.tot_requests       235043                       # Total number of requests made to the snoop filter.
system.tol3bus.snoop_filter.tot_snoops           8684                       # Total number of snoops made to the snoop filter.
system.membus.trans_dist::ReadResp              75334                       # Transaction distribution
system.membus.trans_dist::WritebackDirty        47561                       # Transaction distribution
system.membus.trans_dist::CleanEvict            55127                       # Transaction distribution
system.membus.trans_dist::UpgradeReq                2                       # Transaction distribution
system.membus.trans_dist::ReadExReq             27329                       # Transaction distribution
system.membus.trans_dist::ReadExResp            27329                       # Transaction distribution
system.membus.trans_dist::ReadSharedReq         75334                       # Transaction distribution
system.membus.pkt_count_system.l3.mem_side::system.mem_ctrls.port       308016                       # Packet count per connected master and slave (bytes)
system.membus.pkt_count_system.l3.mem_side::total       308016                       # Packet count per connected master and slave (bytes)
system.membus.pkt_count::total                 308016                       # Packet count per connected master and slave (bytes)
system.membus.pkt_size_system.l3.mem_side::system.mem_ctrls.port      9614336                       # Cumulative packet size per connected master and slave (bytes)
system.membus.pkt_size_system.l3.mem_side::total      9614336                       # Cumulative packet size per connected master and slave (bytes)
system.membus.pkt_size::total                 9614336                       # Cumulative packet size per connected master and slave (bytes)
system.membus.snoops                                0                       # Total snoops (count)
system.membus.snoopTraffic                          0                       # Total snoop traffic (bytes)
system.membus.snoop_fanout::samples            102665                       # Request fanout histogram
system.membus.snoop_fanout::mean                    0                       # Request fanout histogram
system.membus.snoop_fanout::stdev                   0                       # Request fanout histogram
system.membus.snoop_fanout::underflows              0      0.00%      0.00% # Request fanout histogram
system.membus.snoop_fanout::0                  102665    100.00%    100.00% # Request fanout histogram
system.membus.snoop_fanout::1                       0      0.00%    100.00% # Request fanout histogram
system.membus.snoop_fanout::overflows               0      0.00%    100.00% # Request fanout histogram
system.membus.snoop_fanout::min_value               0                       # Request fanout histogram
system.membus.snoop_fanout::max_value               0                       # Request fanout histogram
system.membus.snoop_fanout::total              102665                       # Request fanout histogram
system.membus.reqLayer2.occupancy           426161000                       # Layer occupancy (ticks)
system.membus.reqLayer2.utilization               0.5                       # Layer utilization (%)
system.membus.respLayer1.occupancy          549964000                       # Layer occupancy (ticks)
system.membus.respLayer1.utilization              0.6                       # Layer utilization (%)
system.membus.power_state.pwrStateResidencyTicks::UNDEFINED 1352666035000                       # Cumulative time (in ticks) in various power states
system.switch_cpus_1.dtb.walker.power_state.pwrStateResidencyTicks::UNDEFINED 1352666035000                       # Cumulative time (in ticks) in various power states
system.switch_cpus_1.itb.walker.power_state.pwrStateResidencyTicks::UNDEFINED 1352666035000                       # Cumulative time (in ticks) in various power states
system.switch_cpus_1.power_state.pwrStateResidencyTicks::OFF 1352666035000                       # Cumulative time (in ticks) in various power states
system.switch_cpus.dtb.walker.power_state.pwrStateResidencyTicks::UNDEFINED 1352666035000                       # Cumulative time (in ticks) in various power states
system.switch_cpus.itb.walker.power_state.pwrStateResidencyTicks::UNDEFINED 1352666035000                       # Cumulative time (in ticks) in various power states
system.switch_cpus.power_state.numTransitions            1                       # Number of power state transitions
system.switch_cpus.power_state.pwrStateResidencyTicks::OFF 1352666035000                       # Cumulative time (in ticks) in various power states
system.tol2bus.trans_dist::ReadResp            313201                       # Transaction distribution
system.tol2bus.trans_dist::WritebackDirty        69183                       # Transaction distribution
system.tol2bus.trans_dist::WritebackClean       213167                       # Transaction distribution
system.tol2bus.trans_dist::CleanEvict          102018                       # Transaction distribution
system.tol2bus.trans_dist::UpgradeReq            6900                       # Transaction distribution
system.tol2bus.trans_dist::UpgradeResp           6900                       # Transaction distribution
system.tol2bus.trans_dist::ReadExReq            29098                       # Transaction distribution
system.tol2bus.trans_dist::ReadExResp           29098                       # Transaction distribution
system.tol2bus.trans_dist::ReadCleanReq        313201                       # Transaction distribution
system.tol2bus.pkt_count_system.cpu.icache.mem_side::system.l2.cpu_side       639501                       # Packet count per connected master and slave (bytes)
system.tol2bus.pkt_count_system.cpu.dcache.mem_side::system.l2.cpu_side       401196                       # Packet count per connected master and slave (bytes)
system.tol2bus.pkt_count::total               1040697                       # Packet count per connected master and slave (bytes)
system.tol2bus.pkt_size_system.cpu.icache.mem_side::system.l2.cpu_side     27285376                       # Cumulative packet size per connected master and slave (bytes)
system.tol2bus.pkt_size_system.cpu.dcache.mem_side::system.l2.cpu_side     10569472                       # Cumulative packet size per connected master and slave (bytes)
system.tol2bus.pkt_size::total               37854848                       # Cumulative packet size per connected master and slave (bytes)
system.tol2bus.snoops                           42069                       # Total snoops (count)
system.tol2bus.snoopTraffic                   2122688                       # Total snoop traffic (bytes)
system.tol2bus.snoop_fanout::samples           391268                       # Request fanout histogram
system.tol2bus.snoop_fanout::mean            0.001173                       # Request fanout histogram
system.tol2bus.snoop_fanout::stdev           0.034231                       # Request fanout histogram
system.tol2bus.snoop_fanout::underflows             0      0.00%      0.00% # Request fanout histogram
system.tol2bus.snoop_fanout::0                 390809     99.88%     99.88% # Request fanout histogram
system.tol2bus.snoop_fanout::1                    459      0.12%    100.00% # Request fanout histogram
system.tol2bus.snoop_fanout::2                      0      0.00%    100.00% # Request fanout histogram
system.tol2bus.snoop_fanout::3                      0      0.00%    100.00% # Request fanout histogram
system.tol2bus.snoop_fanout::4                      0      0.00%    100.00% # Request fanout histogram
system.tol2bus.snoop_fanout::overflows              0      0.00%    100.00% # Request fanout histogram
system.tol2bus.snoop_fanout::min_value              0                       # Request fanout histogram
system.tol2bus.snoop_fanout::max_value              1                       # Request fanout histogram
system.tol2bus.snoop_fanout::total             391268                       # Request fanout histogram
system.tol2bus.reqLayer0.occupancy          594932000                       # Layer occupancy (ticks)
system.tol2bus.reqLayer0.utilization              0.6                       # Layer utilization (%)
system.tol2bus.respLayer1.occupancy         197148000                       # Layer occupancy (ticks)
system.tol2bus.respLayer1.utilization             0.2                       # Layer utilization (%)
system.tol2bus.respLayer0.occupancy         319750500                       # Layer occupancy (ticks)
system.tol2bus.respLayer0.utilization             0.3                       # Layer utilization (%)
system.tol2bus.power_state.pwrStateResidencyTicks::UNDEFINED 1352666035000                       # Cumulative time (in ticks) in various power states
system.voltage_domain.voltage                       1                       # Voltage in Volts
system.clk_domain.clock                          1000                       # Clock period in ticks
system.l2.demand_hits::.switch_cpus_1.inst       212952                       # number of demand (read+write) hits
system.l2.demand_hits::.switch_cpus_1.data        14759                       # number of demand (read+write) hits
system.l2.demand_hits::total                   227711                       # number of demand (read+write) hits
system.l2.overall_hits::.switch_cpus_1.inst       212952                       # number of overall hits
system.l2.overall_hits::.switch_cpus_1.data        14759                       # number of overall hits
system.l2.overall_hits::total                  227711                       # number of overall hits
system.l2.demand_misses::.switch_cpus_1.inst          215                       # number of demand (read+write) misses
system.l2.demand_misses::.switch_cpus_1.data       114373                       # number of demand (read+write) misses
system.l2.demand_misses::total                 114588                       # number of demand (read+write) misses
system.l2.overall_misses::.switch_cpus_1.inst          215                       # number of overall misses
system.l2.overall_misses::.switch_cpus_1.data       114373                       # number of overall misses
system.l2.overall_misses::total                114588                       # number of overall misses
system.l2.demand_miss_latency::.switch_cpus_1.inst     21008500                       # number of demand (read+write) miss cycles
system.l2.demand_miss_latency::.switch_cpus_1.data  10618617500                       # number of demand (read+write) miss cycles
system.l2.demand_miss_latency::total      10639626000                       # number of demand (read+write) miss cycles
system.l2.overall_miss_latency::.switch_cpus_1.inst     21008500                       # number of overall miss cycles
system.l2.overall_miss_latency::.switch_cpus_1.data  10618617500                       # number of overall miss cycles
system.l2.overall_miss_latency::total     10639626000                       # number of overall miss cycles
system.l2.demand_accesses::.switch_cpus_1.inst       213167                       # number of demand (read+write) accesses
system.l2.demand_accesses::.switch_cpus_1.data       129132                       # number of demand (read+write) accesses
system.l2.demand_accesses::total               342299                       # number of demand (read+write) accesses
system.l2.overall_accesses::.switch_cpus_1.inst       213167                       # number of overall (read+write) accesses
system.l2.overall_accesses::.switch_cpus_1.data       129132                       # number of overall (read+write) accesses
system.l2.overall_accesses::total              342299                       # number of overall (read+write) accesses
system.l2.demand_miss_rate::.switch_cpus_1.inst     0.001009                       # miss rate for demand accesses
system.l2.demand_miss_rate::.switch_cpus_1.data     0.885706                       # miss rate for demand accesses
[...]
system.cpu.dcache.demand_miss_latency::total  34711294500                       # number of demand (read+write) miss cycles
system.cpu.dcache.overall_miss_latency::.switch_cpus.data    651754000                       # number of overall miss cycles
system.cpu.dcache.overall_miss_latency::.switch_cpus_1.data  34059540500                       # number of overall miss cycles
system.cpu.dcache.overall_miss_latency::total  34711294500                       # number of overall miss cycles
system.cpu.dcache.demand_accesses::.cpu.data    398468375                       # number of demand (read+write) accesses
system.cpu.dcache.demand_accesses::.switch_cpus.data     19936531                       # number of demand (read+write) accesses
system.cpu.dcache.demand_accesses::.switch_cpus_1.data    100623325                       # number of demand (read+write) accesses
system.cpu.dcache.demand_accesses::total    519028231                       # number of demand (read+write) accesses
system.cpu.dcache.overall_accesses::.cpu.data    398468375                       # number of overall (read+write) accesses
system.cpu.dcache.overall_accesses::.switch_cpus.data     19936531                       # number of overall (read+write) accesses
system.cpu.dcache.overall_accesses::.switch_cpus_1.data    100623325                       # number of overall (read+write) accesses
system.cpu.dcache.overall_accesses::total    519028231                       # number of overall (read+write) accesses
system.cpu.dcache.demand_miss_rate::.cpu.data     0.000575                       # miss rate for demand accesses
system.cpu.dcache.demand_miss_rate::.switch_cpus.data     0.000475                       # miss rate for demand accesses
system.cpu.dcache.demand_miss_rate::.switch_cpus_1.data     0.004107                       # miss rate for demand accesses
system.cpu.dcache.demand_miss_rate::total     0.001256                       # miss rate for demand accesses
system.cpu.dcache.overall_miss_rate::.cpu.data     0.000575                       # miss rate for overall accesses
system.cpu.dcache.overall_miss_rate::.switch_cpus.data     0.000475                       # miss rate for overall accesses
system.cpu.dcache.overall_miss_rate::.switch_cpus_1.data     0.004107                       # miss rate for overall accesses
system.cpu.dcache.overall_miss_rate::total     0.001256                       # miss rate for overall accesses
system.cpu.dcache.demand_avg_miss_latency::.switch_cpus.data 68866.652578                       # average overall miss latency
system.cpu.dcache.demand_avg_miss_latency::.switch_cpus_1.data 82420.924695                       # average overall miss latency
system.cpu.dcache.demand_avg_miss_latency::total 53237.855136                       # average overall miss latency
system.cpu.dcache.overall_avg_miss_latency::.switch_cpus.data 68866.652578                       # average overall miss latency
system.cpu.dcache.overall_avg_miss_latency::.switch_cpus_1.data 82420.924695                       # average overall miss latency
system.cpu.dcache.overall_avg_miss_latency::total 53237.855136                       # average overall miss latency
system.cpu.dcache.blocked_cycles::no_mshrs          501                       # number of cycles access was blocked
system.cpu.dcache.blocked_cycles::no_targets            0                       # number of cycles access was blocked
system.cpu.dcache.blocked::no_mshrs                18                       # number of cycles access was blocked
system.cpu.dcache.blocked::no_targets               0                       # number of cycles access was blocked
system.cpu.dcache.avg_blocked_cycles::no_mshrs    27.833333                       # average number of cycles each access was blocked
system.cpu.dcache.avg_blocked_cycles::no_targets          nan                       # average number of cycles each access was blocked
system.cpu.dcache.writebacks::.writebacks       166018                       # number of writebacks
system.cpu.dcache.writebacks::total            166018                       # number of writebacks
system.cpu.dcache.demand_mshr_hits::.switch_cpus_1.data       277291                       # number of demand (read+write) MSHR hits
system.cpu.dcache.demand_mshr_hits::total       277291                       # number of demand (read+write) MSHR hits
system.cpu.dcache.overall_mshr_hits::.switch_cpus_1.data       277291                       # number of overall MSHR hits
system.cpu.dcache.overall_mshr_hits::total       277291                       # number of overall MSHR hits
system.cpu.dcache.demand_mshr_misses::.switch_cpus.data         9464                       # number of demand (read+write) MSHR misses
system.cpu.dcache.demand_mshr_misses::.switch_cpus_1.data       135948                       # number of demand (read+write) MSHR misses
system.cpu.dcache.demand_mshr_misses::total       145412                       # number of demand (read+write) MSHR misses
system.cpu.dcache.overall_mshr_misses::.switch_cpus.data         9464                       # number of overall MSHR misses
system.cpu.dcache.overall_mshr_misses::.switch_cpus_1.data       135948                       # number of overall MSHR misses
system.cpu.dcache.overall_mshr_misses::total       145412                       # number of overall MSHR misses
system.cpu.dcache.demand_mshr_miss_latency::.switch_cpus.data    642290000                       # number of demand (read+write) MSHR miss cycles
system.cpu.dcache.demand_mshr_miss_latency::.switch_cpus_1.data  11144908000                       # number of demand (read+write) MSHR miss cycles
system.cpu.dcache.demand_mshr_miss_latency::total  11787198000                       # number of demand (read+write) MSHR miss cycles
system.cpu.dcache.overall_mshr_miss_latency::.switch_cpus.data    642290000                       # number of overall MSHR miss cycles
system.cpu.dcache.overall_mshr_miss_latency::.switch_cpus_1.data  11144908000                       # number of overall MSHR miss cycles
system.cpu.dcache.overall_mshr_miss_latency::total  11787198000                       # number of overall MSHR miss cycles
system.cpu.dcache.demand_mshr_miss_rate::.switch_cpus.data     0.000475                       # mshr miss rate for demand accesses
system.cpu.dcache.demand_mshr_miss_rate::.switch_cpus_1.data     0.001351                       # mshr miss rate for demand accesses
system.cpu.dcache.demand_mshr_miss_rate::total     0.000280                       # mshr miss rate for demand accesses
system.cpu.dcache.overall_mshr_miss_rate::.switch_cpus.data     0.000475                       # mshr miss rate for overall accesses
system.cpu.dcache.overall_mshr_miss_rate::.switch_cpus_1.data     0.001351                       # mshr miss rate for overall accesses
system.cpu.dcache.overall_mshr_miss_rate::total     0.000280                       # mshr miss rate for overall accesses
system.cpu.dcache.demand_avg_mshr_miss_latency::.switch_cpus.data 67866.652578                       # average overall mshr miss latency
system.cpu.dcache.demand_avg_mshr_miss_latency::.switch_cpus_1.data 81979.197929                       # average overall mshr miss latency
system.cpu.dcache.demand_avg_mshr_miss_latency::total 81060.696504                       # average overall mshr miss latency
system.cpu.dcache.overall_avg_mshr_miss_latency::.switch_cpus.data 67866.652578                       # average overall mshr miss latency
system.cpu.dcache.overall_avg_mshr_miss_latency::.switch_cpus_1.data 81979.197929                       # average overall mshr miss latency
system.cpu.dcache.overall_avg_mshr_miss_latency::total 81060.696504                       # average overall mshr miss latency
system.cpu.dcache.replacements                 365217                       # number of replacements
system.cpu.dcache.ReadReq_hits::.cpu.data    222565313                       # number of ReadReq hits
system.cpu.dcache.ReadReq_hits::.switch_cpus.data     11115150                       # number of ReadReq hits
system.cpu.dcache.ReadReq_hits::.switch_cpus_1.data     57557162                       # number of ReadReq hits
system.cpu.dcache.ReadReq_hits::total       291237625                       # number of ReadReq hits
system.cpu.dcache.ReadReq_misses::.cpu.data       103833                       # number of ReadReq misses
system.cpu.dcache.ReadReq_misses::.switch_cpus.data         4642                       # number of ReadReq misses
system.cpu.dcache.ReadReq_misses::.switch_cpus_1.data       377241                       # number of ReadReq misses
system.cpu.dcache.ReadReq_misses::total        485716                       # number of ReadReq misses
system.cpu.dcache.ReadReq_miss_latency::.switch_cpus.data    160861000                       # number of ReadReq miss cycles
system.cpu.dcache.ReadReq_miss_latency::.switch_cpus_1.data  30986377000                       # number of ReadReq miss cycles
system.cpu.dcache.ReadReq_miss_latency::total  31147238000                       # number of ReadReq miss cycles
system.cpu.dcache.ReadReq_accesses::.cpu.data    222669146                       # number of ReadReq accesses(hits+misses)
system.cpu.dcache.ReadReq_accesses::.switch_cpus.data     11119792                       # number of ReadReq accesses(hits+misses)
system.cpu.dcache.ReadReq_accesses::.switch_cpus_1.data     57934403                       # number of ReadReq accesses(hits+misses)
system.cpu.dcache.ReadReq_accesses::total    291723341                       # number of ReadReq accesses(hits+misses)
system.cpu.dcache.ReadReq_miss_rate::.cpu.data     0.000466                       # miss rate for ReadReq accesses
system.cpu.dcache.ReadReq_miss_rate::.switch_cpus.data     0.000417                       # miss rate for ReadReq accesses
system.cpu.dcache.ReadReq_miss_rate::.switch_cpus_1.data     0.006512                       # miss rate for ReadReq accesses
system.cpu.dcache.ReadReq_miss_rate::total     0.001665                       # miss rate for ReadReq accesses
system.cpu.dcache.ReadReq_avg_miss_latency::.switch_cpus.data 34653.382163                       # average ReadReq miss latency
system.cpu.dcache.ReadReq_avg_miss_latency::.switch_cpus_1.data 82139.473175                       # average ReadReq miss latency
system.cpu.dcache.ReadReq_avg_miss_latency::total 64126.440142                       # average ReadReq miss latency
system.cpu.dcache.ReadReq_mshr_hits::.switch_cpus_1.data       277207                       # number of ReadReq MSHR hits
system.cpu.dcache.ReadReq_mshr_hits::total       277207                       # number of ReadReq MSHR hits
system.cpu.dcache.ReadReq_mshr_misses::.switch_cpus.data         4642                       # number of ReadReq MSHR misses
system.cpu.dcache.ReadReq_mshr_misses::.switch_cpus_1.data       100034                       # number of ReadReq MSHR misses
system.cpu.dcache.ReadReq_mshr_misses::total       104676                       # number of ReadReq MSHR misses
system.cpu.dcache.ReadReq_mshr_miss_latency::.switch_cpus.data    156219000                       # number of ReadReq MSHR miss cycles
system.cpu.dcache.ReadReq_mshr_miss_latency::.switch_cpus_1.data   8107742500                       # number of ReadReq MSHR miss cycles
system.cpu.dcache.ReadReq_mshr_miss_latency::total   8263961500                       # number of ReadReq MSHR miss cycles
system.cpu.dcache.ReadReq_mshr_miss_rate::.switch_cpus.data     0.000417                       # mshr miss rate for ReadReq accesses
system.cpu.dcache.ReadReq_mshr_miss_rate::.switch_cpus_1.data     0.001727                       # mshr miss rate for ReadReq accesses
system.cpu.dcache.ReadReq_mshr_miss_rate::total     0.000359                       # mshr miss rate for ReadReq accesses
system.cpu.dcache.ReadReq_avg_mshr_miss_latency::.switch_cpus.data 33653.382163                       # average ReadReq mshr miss latency
system.cpu.dcache.ReadReq_avg_mshr_miss_latency::.switch_cpus_1.data 81049.868045                       # average ReadReq mshr miss latency
system.cpu.dcache.ReadReq_avg_mshr_miss_latency::total 78948.006229                       # average ReadReq mshr miss latency
system.cpu.dcache.WriteReq_hits::.cpu.data    175673761                       # number of WriteReq hits
system.cpu.dcache.WriteReq_hits::.switch_cpus.data      8811917                       # number of WriteReq hits
system.cpu.dcache.WriteReq_hits::.switch_cpus_1.data     42652924                       # number of WriteReq hits
system.cpu.dcache.WriteReq_hits::total      227138602                       # number of WriteReq hits
system.cpu.dcache.WriteReq_misses::.cpu.data       125468                       # number of WriteReq misses
system.cpu.dcache.WriteReq_misses::.switch_cpus.data         4822                       # number of WriteReq misses
system.cpu.dcache.WriteReq_misses::.switch_cpus_1.data        35998                       # number of WriteReq misses
system.cpu.dcache.WriteReq_misses::total       166288                       # number of WriteReq misses
system.cpu.dcache.WriteReq_miss_latency::.switch_cpus.data    490893000                       # number of WriteReq miss cycles
system.cpu.dcache.WriteReq_miss_latency::.switch_cpus_1.data   3073163500                       # number of WriteReq miss cycles
system.cpu.dcache.WriteReq_miss_latency::total   3564056500                       # number of WriteReq miss cycles
system.cpu.dcache.WriteReq_accesses::.cpu.data    175799229                       # number of WriteReq accesses(hits+misses)
system.cpu.dcache.WriteReq_accesses::.switch_cpus.data      8816739                       # number of WriteReq accesses(hits+misses)
system.cpu.dcache.WriteReq_accesses::.switch_cpus_1.data     42688922                       # number of WriteReq accesses(hits+misses)
system.cpu.dcache.WriteReq_accesses::total    227304890                       # number of WriteReq accesses(hits+misses)
system.cpu.dcache.WriteReq_miss_rate::.cpu.data     0.000714                       # miss rate for WriteReq accesses
system.cpu.dcache.WriteReq_miss_rate::.switch_cpus.data     0.000547                       # miss rate for WriteReq accesses
system.cpu.dcache.WriteReq_miss_rate::.switch_cpus_1.data     0.000843                       # miss rate for WriteReq accesses
system.cpu.dcache.WriteReq_miss_rate::total     0.000732                       # miss rate for WriteReq accesses
system.cpu.dcache.WriteReq_avg_miss_latency::.switch_cpus.data 101802.778930                       # average WriteReq miss latency
system.cpu.dcache.WriteReq_avg_miss_latency::.switch_cpus_1.data 85370.395578                       # average WriteReq miss latency
system.cpu.dcache.WriteReq_avg_miss_latency::total 21433.034855                       # average WriteReq miss latency
system.cpu.dcache.WriteReq_mshr_hits::.switch_cpus_1.data           84                       # number of WriteReq MSHR hits
system.cpu.dcache.WriteReq_mshr_hits::total           84                       # number of WriteReq MSHR hits
system.cpu.dcache.WriteReq_mshr_misses::.switch_cpus.data         4822                       # number of WriteReq MSHR misses
system.cpu.dcache.WriteReq_mshr_misses::.switch_cpus_1.data        35914                       # number of WriteReq MSHR misses
system.cpu.dcache.WriteReq_mshr_misses::total        40736                       # number of WriteReq MSHR misses
system.cpu.dcache.WriteReq_mshr_miss_latency::.switch_cpus.data    486071000                       # number of WriteReq MSHR miss cycles
system.cpu.dcache.WriteReq_mshr_miss_latency::.switch_cpus_1.data   3037165500                       # number of WriteReq MSHR miss cycles
system.cpu.dcache.WriteReq_mshr_miss_latency::total   3523236500                       # number of WriteReq MSHR miss cycles
system.cpu.dcache.WriteReq_mshr_miss_rate::.switch_cpus.data     0.000547                       # mshr miss rate for WriteReq accesses
system.cpu.dcache.WriteReq_mshr_miss_rate::.switch_cpus_1.data     0.000841                       # mshr miss rate for WriteReq accesses
system.cpu.dcache.WriteReq_mshr_miss_rate::total     0.000179                       # mshr miss rate for WriteReq accesses
system.cpu.dcache.WriteReq_avg_mshr_miss_latency::.switch_cpus.data 100802.778930                       # average WriteReq mshr miss latency
system.cpu.dcache.WriteReq_avg_mshr_miss_latency::.switch_cpus_1.data 84567.731247                       # average WriteReq mshr miss latency
system.cpu.dcache.WriteReq_avg_mshr_miss_latency::total 86489.505597                       # average WriteReq mshr miss latency
system.cpu.dcache.power_state.pwrStateResidencyTicks::UNDEFINED 1352666035000                       # Cumulative time (in ticks) in various power states
system.cpu.dcache.tags.tagsinuse           511.994465                       # Cycle average of tags in use
system.cpu.dcache.tags.total_refs           518751049                       # Total number of references to valid blocks.
system.cpu.dcache.tags.sampled_refs            365729                       # Sample count of references to valid blocks.
system.cpu.dcache.tags.avg_refs           1418.402831                       # Average number of references to valid blocks.
system.cpu.dcache.tags.warmup_cycle              1500                       # Cycle when the warmup percentage was hit.
system.cpu.dcache.tags.occ_blocks::.cpu.data   454.624253                       # Average occupied blocks per requestor
system.cpu.dcache.tags.occ_blocks::.switch_cpus.data    27.356996                       # Average occupied blocks per requestor
system.cpu.dcache.tags.occ_blocks::.switch_cpus_1.data    30.013215                       # Average occupied blocks per requestor
system.cpu.dcache.tags.occ_percent::.cpu.data     0.887938                       # Average percentage of cache occupancy
system.cpu.dcache.tags.occ_percent::.switch_cpus.data     0.053432                       # Average percentage of cache occupancy
system.cpu.dcache.tags.occ_percent::.switch_cpus_1.data     0.058620                       # Average percentage of cache occupancy
system.cpu.dcache.tags.occ_percent::total     0.999989                       # Average percentage of cache occupancy
system.cpu.dcache.tags.occ_task_id_blocks::1024          512                       # Occupied blocks per task id
system.cpu.dcache.tags.age_task_id_blocks_1024::0           30                       # Occupied blocks per task id
system.cpu.dcache.tags.age_task_id_blocks_1024::1          313                       # Occupied blocks per task id
system.cpu.dcache.tags.age_task_id_blocks_1024::2          148                       # Occupied blocks per task id
system.cpu.dcache.tags.age_task_id_blocks_1024::3           19                       # Occupied blocks per task id
system.cpu.dcache.tags.age_task_id_blocks_1024::4            2                       # Occupied blocks per task id
system.cpu.dcache.tags.occ_task_id_percent::1024            1                       # Percentage of cache occupancy per task id
system.cpu.dcache.tags.tag_accesses        2076478653                       # Number of tag accesses
system.cpu.dcache.tags.data_accesses       2076478653                       # Number of data accesses
system.cpu.dcache.tags.power_state.pwrStateResidencyTicks::UNDEFINED 1352666035000                       # Cumulative time (in ticks) in various power states
system.cpu.power_state.numTransitions               2                       # Number of power state transitions
system.cpu.power_state.pwrStateResidencyTicks::ON 1169538802000                       # Cumulative time (in ticks) in various power states
system.cpu.power_state.pwrStateResidencyTicks::OFF 183127233000                       # Cumulative time (in ticks) in various power states

---------- End Simulation Statistics   ----------
