
---------- Begin Simulation Statistics ----------
final_tick                               1498254386500                       # Number of ticks from beginning of simulation (restored from checkpoints and never reset)
host_inst_rate                                 108100                       # Simulator instruction rate (inst/s)
host_mem_usage                                4560232                       # Number of bytes of host memory used
host_op_rate                                   190541                       # Simulator op (including micro ops) rate (op/s)
host_seconds                                 12025.88                       # Real time elapsed on the host
host_tick_rate                               27224531                       # Simulator tick rate (ticks/s)
sim_freq                                 1000000000000                       # Frequency of simulated ticks
sim_insts                                  1300000003                       # Number of instructions simulated
sim_ops                                    2291424674                       # Number of ops (including micro ops) simulated
sim_seconds                                  0.327399                       # Number of seconds simulated
sim_ticks                                327398887750                       # Number of ticks simulated
system.cpu.committedInsts                           0                       # Number of instructions committed
system.cpu.committedOps                             0                       # Number of ops (including micro ops) committed
system.cpu.dtb.rdAccesses                           0                       # TLB accesses on read requests
system.cpu.dtb.rdMisses                             0                       # TLB misses on read requests
system.cpu.dtb.wrAccesses                           0                       # TLB accesses on write requests
system.cpu.dtb.wrMisses                             0                       # TLB misses on write requests
system.cpu.idle_fraction                            0                       # Percentage of idle cycles
system.cpu.itb.rdAccesses                           0                       # TLB accesses on read requests
system.cpu.itb.rdMisses                             0                       # TLB misses on read requests
system.cpu.itb.wrAccesses                           0                       # TLB accesses on write requests
system.cpu.itb.wrMisses                             0                       # TLB misses on write requests
system.cpu.not_idle_fraction                        1                       # Percentage of non-idle cycles
system.cpu.numCycles                                0                       # number of cpu cycles simulated
system.cpu.numWorkItemsCompleted                    0                       # number of work items this cpu completed
system.cpu.numWorkItemsStarted                      0                       # number of work items this cpu started
system.cpu.num_busy_cycles                          0                       # Number of busy cycles
system.cpu.num_conditional_control_insts            0                       # number of instructions that are conditional controls
system.cpu.num_fp_alu_accesses                      0                       # Number of float alu accesses
system.cpu.num_fp_insts                             0                       # number of float instructions
system.cpu.num_fp_register_reads                    0                       # number of times the floating registers were read
system.cpu.num_fp_register_writes                   0                       # number of times the floating registers were written
system.cpu.num_func_calls                           0                       # number of times a function call or return occured
system.cpu.num_idle_cycles                          0                       # Number of idle cycles
system.cpu.num_int_alu_accesses                     0                       # Number of integer alu accesses
system.cpu.num_int_insts                            0                       # number of integer instructions
system.cpu.num_int_register_reads                   0                       # number of times the integer registers were read
system.cpu.num_int_register_writes                  0                       # number of times the integer registers were written
system.cpu.num_load_insts                           0                       # Number of load instructions
system.cpu.num_mem_refs                             0                       # number of memory refs
system.cpu.num_store_insts                          0                       # Number of store instructions
system.cpu.num_vec_alu_accesses                     0                       # Number of vector alu accesses
system.cpu.num_vec_insts                            0                       # number of vector instructions
system.cpu.num_vec_register_reads                   0                       # number of times the vector registers were read
system.cpu.num_vec_register_writes                  0                       # number of times the vector registers were written
system.cpu.op_class::No_OpClass                     0                       # Class of executed instruction
system.cpu.op_class::IntAlu                         0                       # Class of executed instruction
system.cpu.op_class::IntMult                        0                       # Class of executed instruction
system.cpu.op_class::IntDiv                         0                       # Class of executed instruction
system.cpu.op_class::FloatAdd                       0                       # Class of executed instruction
system.cpu.op_class::FloatCmp                       0                       # Class of executed instruction
system.cpu.op_class::FloatCvt                       0                       # Class of executed instruction
system.cpu.op_class::FloatMult                      0                       # Class of executed instruction
system.cpu.op_class::FloatMultAcc                   0                       # Class of executed instruction
system.cpu.op_class::FloatDiv                       0                       # Class of executed instruction
system.cpu.op_class::FloatMisc                      0                       # Class of executed instruction
system.cpu.op_class::FloatSqrt                      0                       # Class of executed instruction
system.cpu.op_class::SimdAdd                        0                       # Class of executed instruction
system.cpu.op_class::SimdAddAcc                     0                       # Class of executed instruction
system.cpu.op_class::SimdAlu                        0                       # Class of executed instruction
system.cpu.op_class::SimdCmp                        0                       # Class of executed instruction
system.cpu.op_class::SimdCvt                        0                       # Class of executed instruction
system.cpu.op_class::SimdMisc                       0                       # Class of executed instruction
system.cpu.op_class::SimdMult                       0                       # Class of executed instruction
system.cpu.op_class::SimdMultAcc                    0                       # Class of executed instruction
system.cpu.op_class::SimdShift                      0                       # Class of executed instruction
system.cpu.op_class::SimdShiftAcc                   0                       # Class of executed instruction
system.cpu.op_class::SimdDiv                        0                       # Class of executed instruction
system.cpu.op_class::SimdSqrt                       0                       # Class of executed instruction
system.cpu.op_class::SimdFloatAdd                   0                       # Class of executed instruction
system.cpu.op_class::SimdFloatAlu                   0                       # Class of executed instruction
system.cpu.op_class::SimdFloatCmp                   0                       # Class of executed instruction
system.cpu.op_class::SimdFloatCvt                   0                       # Class of executed instruction
system.cpu.op_class::SimdFloatDiv                   0                       # Class of executed instruction
system.cpu.op_class::SimdFloatMisc                  0                       # Class of executed instruction
system.cpu.op_class::SimdFloatMult                  0                       # Class of executed instruction
system.cpu.op_class::SimdFloatMultAcc               0                       # Class of executed instruction
system.cpu.op_class::SimdFloatSqrt                  0                       # Class of executed instruction
system.cpu.op_class::SimdReduceAdd                  0                       # Class of executed instruction
system.cpu.op_class::SimdReduceAlu                  0                       # Class of executed instruction
system.cpu.op_class::SimdReduceCmp                  0                       # Class of executed instruction
system.cpu.op_class::SimdFloatReduceAdd             0                       # Class of executed instruction
system.cpu.op_class::SimdFloatReduceCmp             0                       # Class of executed instruction
system.cpu.op_class::SimdAes                        0                       # Class of executed instruction
system.cpu.op_class::SimdAesMix                     0                       # Class of executed instruction
system.cpu.op_class::SimdSha1Hash                   0                       # Class of executed instruction
system.cpu.op_class::SimdSha1Hash2                  0                       # Class of executed instruction
system.cpu.op_class::SimdSha256Hash                 0                       # Class of executed instruction
system.cpu.op_class::SimdSha256Hash2                0                       # Class of executed instruction
system.cpu.op_class::SimdShaSigma2                  0                       # Class of executed instruction
system.cpu.op_class::SimdShaSigma3                  0                       # Class of executed instruction
system.cpu.op_class::SimdPredAlu                    0                       # Class of executed instruction
system.cpu.op_class::MemRead                        0                       # Class of executed instruction
system.cpu.op_class::MemWrite                       0                       # Class of executed instruction
system.cpu.op_class::FloatMemRead                   0                       # Class of executed instruction
system.cpu.op_class::FloatMemWrite                  0                       # Class of executed instruction
system.cpu.op_class::IprAccess                      0                       # Class of executed instruction
system.cpu.op_class::InstPrefetch                   0                       # Class of executed instruction
system.cpu.op_class::total                          0                       # Class of executed instruction
system.cpu.workload.numSyscalls                     0                       # Number of system calls
system.membus.snoop_filter.hit_multi_requests            0                       # Number of requests hitting in the snoop filter with multiple (>1) holders of the requested data.
system.membus.snoop_filter.hit_multi_snoops            0                       # Number of snoops hitting in the snoop filter with multiple (>1) holders of the requested data.
system.membus.snoop_filter.hit_single_requests          384                       # Number of requests hitting in the snoop filter with a single holder of the requested data.
system.membus.snoop_filter.hit_single_snoops            0                       # Number of snoops hitting in the snoop filter with a single holder of the requested data.
system.membus.snoop_filter.tot_requests           726                       # Total number of requests made to the snoop filter.
system.membus.snoop_filter.tot_snoops               0                       # Total number of snoops made to the snoop filter.
system.switch_cpus.committedInsts                   0                       # Number of instructions committed
system.switch_cpus.committedOps                     0                       # Number of ops (including micro ops) committed
system.switch_cpus.dtb.rdAccesses                   0                       # TLB accesses on read requests
system.switch_cpus.dtb.rdMisses                     0                       # TLB misses on read requests
system.switch_cpus.dtb.wrAccesses                   0                       # TLB accesses on write requests
system.switch_cpus.dtb.wrMisses                     0                       # TLB misses on write requests
system.switch_cpus.idle_fraction                    0                       # Percentage of idle cycles
system.switch_cpus.itb.rdAccesses                   0                       # TLB accesses on read requests
system.switch_cpus.itb.rdMisses                     0                       # TLB misses on read requests
system.switch_cpus.itb.wrAccesses                   0                       # TLB accesses on write requests
system.switch_cpus.itb.wrMisses                     0                       # TLB misses on write requests
system.switch_cpus.not_idle_fraction                1                       # Percentage of non-idle cycles
system.switch_cpus.numCycles                        0                       # number of cpu cycles simulated
system.switch_cpus.numWorkItemsCompleted            0                       # number of work items this cpu completed
system.switch_cpus.numWorkItemsStarted              0                       # number of work items this cpu started
system.switch_cpus.num_busy_cycles                  0                       # Number of busy cycles
system.switch_cpus.num_conditional_control_insts            0                       # number of instructions that are conditional controls
system.switch_cpus.num_fp_alu_accesses              0                       # Number of float alu accesses
system.switch_cpus.num_fp_insts                     0                       # number of float instructions
system.switch_cpus.num_fp_register_reads            0                       # number of times the floating registers were read
system.switch_cpus.num_fp_register_writes            0                       # number of times the floating registers were written
system.switch_cpus.num_func_calls                   0                       # number of times a function call or return occured
system.switch_cpus.num_idle_cycles                  0                       # Number of idle cycles
system.switch_cpus.num_int_alu_accesses             0                       # Number of integer alu accesses
system.switch_cpus.num_int_insts                    0                       # number of integer instructions
system.switch_cpus.num_int_register_reads            0                       # number of times the integer registers were read
system.switch_cpus.num_int_register_writes            0                       # number of times the integer registers were written
system.switch_cpus.num_load_insts                   0                       # Number of load instructions
system.switch_cpus.num_mem_refs                     0                       # number of memory refs
system.switch_cpus.num_store_insts                  0                       # Number of store instructions
system.switch_cpus.num_vec_alu_accesses             0                       # Number of vector alu accesses
system.switch_cpus.num_vec_insts                    0                       # number of vector instructions
system.switch_cpus.num_vec_register_reads            0                       # number of times the vector registers were read
system.switch_cpus.num_vec_register_writes            0                       # number of times the vector registers were written
system.switch_cpus.op_class::No_OpClass             0                       # Class of executed instruction
system.switch_cpus.op_class::IntAlu                 0                       # Class of executed instruction
system.switch_cpus.op_class::IntMult                0                       # Class of executed instruction
system.switch_cpus.op_class::IntDiv                 0                       # Class of executed instruction
system.switch_cpus.op_class::FloatAdd               0                       # Class of executed instruction
system.switch_cpus.op_class::FloatCmp               0                       # Class of executed instruction
system.switch_cpus.op_class::FloatCvt               0                       # Class of executed instruction
system.switch_cpus.op_class::FloatMult              0                       # Class of executed instruction
system.switch_cpus.op_class::FloatMultAcc            0                       # Class of executed instruction
system.switch_cpus.op_class::FloatDiv               0                       # Class of executed instruction
system.switch_cpus.op_class::FloatMisc              0                       # Class of executed instruction
system.switch_cpus.op_class::FloatSqrt              0                       # Class of executed instruction
system.switch_cpus.op_class::SimdAdd                0                       # Class of executed instruction
system.switch_cpus.op_class::SimdAddAcc             0                       # Class of executed instruction
system.switch_cpus.op_class::SimdAlu                0                       # Class of executed instruction
system.switch_cpus.op_class::SimdCmp                0                       # Class of executed instruction
system.switch_cpus.op_class::SimdCvt                0                       # Class of executed instruction
system.switch_cpus.op_class::SimdMisc               0                       # Class of executed instruction
system.switch_cpus.op_class::SimdMult               0                       # Class of executed instruction
system.switch_cpus.op_class::SimdMultAcc            0                       # Class of executed instruction
system.switch_cpus.op_class::SimdShift              0                       # Class of executed instruction
system.switch_cpus.op_class::SimdShiftAcc            0                       # Class of executed instruction
system.switch_cpus.op_class::SimdDiv                0                       # Class of executed instruction
system.switch_cpus.op_class::SimdSqrt               0                       # Class of executed instruction
system.switch_cpus.op_class::SimdFloatAdd            0                       # Class of executed instruction
system.switch_cpus.op_class::SimdFloatAlu            0                       # Class of executed instruction
system.switch_cpus.op_class::SimdFloatCmp            0                       # Class of executed instruction
system.switch_cpus.op_class::SimdFloatCvt            0                       # Class of executed instruction
system.switch_cpus.op_class::SimdFloatDiv            0                       # Class of executed instruction
system.switch_cpus.op_class::SimdFloatMisc            0                       # Class of executed instruction
system.switch_cpus.op_class::SimdFloatMult            0                       # Class of executed instruction
system.switch_cpus.op_class::SimdFloatMultAcc            0                       # Class of executed instruction
system.switch_cpus.op_class::SimdFloatSqrt            0                       # Class of executed instruction
system.switch_cpus.op_class::SimdReduceAdd            0                       # Class of executed instruction
system.switch_cpus.op_class::SimdReduceAlu            0                       # Class of executed instruction
system.switch_cpus.op_class::SimdReduceCmp            0                       # Class of executed instruction
system.switch_cpus.op_class::SimdFloatReduceAdd            0                       # Class of executed instruction
system.switch_cpus.op_class::SimdFloatReduceCmp            0                       # Class of executed instruction
system.switch_cpus.op_class::SimdAes                0                       # Class of executed instruction
system.switch_cpus.op_class::SimdAesMix             0                       # Class of executed instruction
system.switch_cpus.op_class::SimdSha1Hash            0                       # Class of executed instruction
system.switch_cpus.op_class::SimdSha1Hash2            0                       # Class of executed instruction
system.switch_cpus.op_class::SimdSha256Hash            0                       # Class of executed instruction
system.switch_cpus.op_class::SimdSha256Hash2            0                       # Class of executed instruction
system.switch_cpus.op_class::SimdShaSigma2            0                       # Class of executed instruction
system.switch_cpus.op_class::SimdShaSigma3            0                       # Class of executed instruction
system.switch_cpus.op_class::SimdPredAlu            0                       # Class of executed instruction
system.switch_cpus.op_class::MemRead                0                       # Class of executed instruction
system.switch_cpus.op_class::MemWrite               0                       # Class of executed instruction
system.switch_cpus.op_class::FloatMemRead            0                       # Class of executed instruction
system.switch_cpus.op_class::FloatMemWrite            0                       # Class of executed instruction
system.switch_cpus.op_class::IprAccess              0                       # Class of executed instruction
system.switch_cpus.op_class::InstPrefetch            0                       # Class of executed instruction
system.switch_cpus.op_class::total                  0                       # Class of executed instruction
system.switch_cpus_1.branchPred.BTBCorrect            0                       # Number of correct BTB predictions (this stat may not work properly.
system.switch_cpus_1.branchPred.BTBHitPct          nan                       # BTB Hit Percentage
system.switch_cpus_1.branchPred.BTBHits             0                       # Number of BTB hits
system.switch_cpus_1.branchPred.BTBLookups            0                       # Number of BTB lookups
system.switch_cpus_1.branchPred.RASInCorrect            3                       # Number of incorrect RAS predictions.
system.switch_cpus_1.branchPred.condIncorrect     25645230                       # Number of conditional branches incorrect
system.switch_cpus_1.branchPred.condPredicted    213592023                       # Number of conditional branches predicted
system.switch_cpus_1.branchPred.indirectHits     25828245                       # Number of indirect target hits.
system.switch_cpus_1.branchPred.indirectLookups    126587209                       # Number of indirect predictor lookups.
system.switch_cpus_1.branchPred.indirectMisses    100758964                       # Number of indirect misses.
system.switch_cpus_1.branchPred.lookups     223731854                       # Number of BP lookups
system.switch_cpus_1.branchPred.usedRAS       8135100                       # Number of times the RAS was used to get a target.
system.switch_cpus_1.branchPredindirectMispredicted     15542992                       # Number of mispredicted indirect branches.
system.switch_cpus_1.cc_regfile_reads       491142017                       # number of cc regfile reads
system.switch_cpus_1.cc_regfile_writes      355852027                       # number of cc regfile writes
system.switch_cpus_1.commit.amos                    0                       # Number of atomic instructions committed
system.switch_cpus_1.commit.branchMispredicts     25645261                       # The number of times a branch was mispredicted
system.switch_cpus_1.commit.branches         46416063                       # Number of branches committed
system.switch_cpus_1.commit.bw_lim_events     20922712                       # number cycles where commit BW limit reached
system.switch_cpus_1.commit.commitNonSpecStalls           30                       # The number of times commit has been forced to stall to communicate backwards
system.switch_cpus_1.commit.commitSquashedInsts   1456275537                       # The number of squashed insts skipped by commit
system.switch_cpus_1.commit.committedInsts    250000000                       # Number of instructions committed
system.switch_cpus_1.commit.committedOps    431624367                       # Number of ops (including micro ops) committed
system.switch_cpus_1.commit.committed_per_cycle::samples    447737804                       # Number of insts commited each cycle
system.switch_cpus_1.commit.committed_per_cycle::mean     0.964011                       # Number of insts commited each cycle
system.switch_cpus_1.commit.committed_per_cycle::stdev     1.937847                       # Number of insts commited each cycle
system.switch_cpus_1.commit.committed_per_cycle::underflows            0      0.00%      0.00% # Number of insts commited each cycle
system.switch_cpus_1.commit.committed_per_cycle::0    287638837     64.24%     64.24% # Number of insts commited each cycle
system.switch_cpus_1.commit.committed_per_cycle::1     86725705     19.37%     83.61% # Number of insts commited each cycle
system.switch_cpus_1.commit.committed_per_cycle::2     12814923      2.86%     86.47% # Number of insts commited each cycle
system.switch_cpus_1.commit.committed_per_cycle::3     17151302      3.83%     90.31% # Number of insts commited each cycle
system.switch_cpus_1.commit.committed_per_cycle::4     16197848      3.62%     93.92% # Number of insts commited each cycle
system.switch_cpus_1.commit.committed_per_cycle::5      3790471      0.85%     94.77% # Number of insts commited each cycle
system.switch_cpus_1.commit.committed_per_cycle::6       782575      0.17%     94.94% # Number of insts commited each cycle
system.switch_cpus_1.commit.committed_per_cycle::7      1713431      0.38%     95.33% # Number of insts commited each cycle
system.switch_cpus_1.commit.committed_per_cycle::8     20922712      4.67%    100.00% # Number of insts commited each cycle
system.switch_cpus_1.commit.committed_per_cycle::overflows            0      0.00%    100.00% # Number of insts commited each cycle
system.switch_cpus_1.commit.committed_per_cycle::min_value            0                       # Number of insts commited each cycle
system.switch_cpus_1.commit.committed_per_cycle::max_value            8                       # Number of insts commited each cycle
system.switch_cpus_1.commit.committed_per_cycle::total    447737804                       # Number of insts commited each cycle
system.switch_cpus_1.commit.fp_insts             5280                       # Number of committed floating point instructions.
system.switch_cpus_1.commit.function_calls        28360                       # Number of function calls committed.
system.switch_cpus_1.commit.int_insts       431593799                       # Number of committed integer instructions.
system.switch_cpus_1.commit.loads            78216584                       # Number of loads committed
system.switch_cpus_1.commit.membars                20                       # Number of memory barriers committed
system.switch_cpus_1.commit.op_class_0::No_OpClass        27468      0.01%      0.01% # Class of committed instruction
system.switch_cpus_1.commit.op_class_0::IntAlu    343000023     79.47%     79.47% # Class of committed instruction
system.switch_cpus_1.commit.op_class_0::IntMult        17115      0.00%     79.48% # Class of committed instruction
system.switch_cpus_1.commit.op_class_0::IntDiv            0      0.00%     79.48% # Class of committed instruction
system.switch_cpus_1.commit.op_class_0::FloatAdd            0      0.00%     79.48% # Class of committed instruction
system.switch_cpus_1.commit.op_class_0::FloatCmp            0      0.00%     79.48% # Class of committed instruction
system.switch_cpus_1.commit.op_class_0::FloatCvt            0      0.00%     79.48% # Class of committed instruction
system.switch_cpus_1.commit.op_class_0::FloatMult            0      0.00%     79.48% # Class of committed instruction
system.switch_cpus_1.commit.op_class_0::FloatMultAcc            0      0.00%     79.48% # Class of committed instruction
system.switch_cpus_1.commit.op_class_0::FloatDiv            0      0.00%     79.48% # Class of committed instruction
system.switch_cpus_1.commit.op_class_0::FloatMisc            0      0.00%     79.48% # Class of committed instruction
system.switch_cpus_1.commit.op_class_0::FloatSqrt            0      0.00%     79.48% # Class of committed instruction
system.switch_cpus_1.commit.op_class_0::SimdAdd            0      0.00%     79.48% # Class of committed instruction
system.switch_cpus_1.commit.op_class_0::SimdAddAcc            0      0.00%     79.48% # Class of committed instruction
system.switch_cpus_1.commit.op_class_0::SimdAlu            0      0.00%     79.48% # Class of committed instruction
system.switch_cpus_1.commit.op_class_0::SimdCmp            0      0.00%     79.48% # Class of committed instruction
system.switch_cpus_1.commit.op_class_0::SimdCvt            0      0.00%     79.48% # Class of committed instruction
system.switch_cpus_1.commit.op_class_0::SimdMisc         1540      0.00%     79.48% # Class of committed instruction
system.switch_cpus_1.commit.op_class_0::SimdMult            0      0.00%     79.48% # Class of committed instruction
system.switch_cpus_1.commit.op_class_0::SimdMultAcc            0      0.00%     79.48% # Class of committed instruction
system.switch_cpus_1.commit.op_class_0::SimdShift            0      0.00%     79.48% # Class of committed instruction
system.switch_cpus_1.commit.op_class_0::SimdShiftAcc            0      0.00%     79.48% # Class of committed instruction
system.switch_cpus_1.commit.op_class_0::SimdDiv            0      0.00%     79.48% # Class of committed instruction
system.switch_cpus_1.commit.op_class_0::SimdSqrt            0      0.00%     79.48% # Class of committed instruction
system.switch_cpus_1.commit.op_class_0::SimdFloatAdd          660      0.00%     79.48% # Class of committed instruction
system.switch_cpus_1.commit.op_class_0::SimdFloatAlu            0      0.00%     79.48% # Class of committed instruction
system.switch_cpus_1.commit.op_class_0::SimdFloatCmp            0      0.00%     79.48% # Class of committed instruction
system.switch_cpus_1.commit.op_class_0::SimdFloatCvt         1540      0.00%     79.48% # Class of committed instruction
system.switch_cpus_1.commit.op_class_0::SimdFloatDiv            0      0.00%     79.48% # Class of committed instruction
system.switch_cpus_1.commit.op_class_0::SimdFloatMisc            0      0.00%     79.48% # Class of committed instruction
system.switch_cpus_1.commit.op_class_0::SimdFloatMult          880      0.00%     79.48% # Class of committed instruction
system.switch_cpus_1.commit.op_class_0::SimdFloatMultAcc            0      0.00%     79.48% # Class of committed instruction
system.switch_cpus_1.commit.op_class_0::SimdFloatSqrt            0      0.00%     79.48% # Class of committed instruction
system.switch_cpus_1.commit.op_class_0::SimdReduceAdd            0      0.00%     79.48% # Class of committed instruction
system.switch_cpus_1.commit.op_class_0::SimdReduceAlu            0      0.00%     79.48% # Class of committed instruction
system.switch_cpus_1.commit.op_class_0::SimdReduceCmp            0      0.00%     79.48% # Class of committed instruction
system.switch_cpus_1.commit.op_class_0::SimdFloatReduceAdd            0      0.00%     79.48% # Class of committed instruction
system.switch_cpus_1.commit.op_class_0::SimdFloatReduceCmp            0      0.00%     79.48% # Class of committed instruction
system.switch_cpus_1.commit.op_class_0::SimdAes            0      0.00%     79.48% # Class of committed instruction
system.switch_cpus_1.commit.op_class_0::SimdAesMix            0      0.00%     79.48% # Class of committed instruction
system.switch_cpus_1.commit.op_class_0::SimdSha1Hash            0      0.00%     79.48% # Class of committed instruction
system.switch_cpus_1.commit.op_class_0::SimdSha1Hash2            0      0.00%     79.48% # Class of committed instruction
system.switch_cpus_1.commit.op_class_0::SimdSha256Hash            0      0.00%     79.48% # Class of committed instruction
system.switch_cpus_1.commit.op_class_0::SimdSha256Hash2            0      0.00%     79.48% # Class of committed instruction
system.switch_cpus_1.commit.op_class_0::SimdShaSigma2            0      0.00%     79.48% # Class of committed instruction
system.switch_cpus_1.commit.op_class_0::SimdShaSigma3            0      0.00%     79.48% # Class of committed instruction
system.switch_cpus_1.commit.op_class_0::SimdPredAlu            0      0.00%     79.48% # Class of committed instruction
system.switch_cpus_1.commit.op_class_0::MemRead     78215924     18.12%     97.60% # Class of committed instruction
system.switch_cpus_1.commit.op_class_0::MemWrite     10358557      2.40%    100.00% # Class of committed instruction
system.switch_cpus_1.commit.op_class_0::FloatMemRead          660      0.00%    100.00% # Class of committed instruction
system.switch_cpus_1.commit.op_class_0::FloatMemWrite            0      0.00%    100.00% # Class of committed instruction
system.switch_cpus_1.commit.op_class_0::IprAccess            0      0.00%    100.00% # Class of committed instruction
system.switch_cpus_1.commit.op_class_0::InstPrefetch            0      0.00%    100.00% # Class of committed instruction
system.switch_cpus_1.commit.op_class_0::total    431624367                       # Class of committed instruction
system.switch_cpus_1.commit.refs             88575141                       # Number of memory references committed
system.switch_cpus_1.commit.swp_count               0                       # Number of s/w prefetches committed
system.switch_cpus_1.commit.vec_insts               0                       # Number of committed Vector instructions.
system.switch_cpus_1.committedInsts         250000000                       # Number of Instructions Simulated
system.switch_cpus_1.committedOps           431624367                       # Number of Ops (including micro ops) Simulated
system.switch_cpus_1.cpi                     2.619191                       # CPI: Cycles Per Instruction
system.switch_cpus_1.cpi_total               2.619191                       # CPI: Total CPI of All Threads
system.switch_cpus_1.decode.BlockedCycles    201141874                       # Number of cycles decode is blocked
system.switch_cpus_1.decode.DecodedInsts   2265740442                       # Number of instructions handled by decode
system.switch_cpus_1.decode.IdleCycles      119032363                       # Number of cycles decode is idle
system.switch_cpus_1.decode.RunCycles       286814655                       # Number of cycles decode is running
system.switch_cpus_1.decode.SquashCycles     25650688                       # Number of cycles decode is squashing
system.switch_cpus_1.decode.UnblockCycles     22157694                       # Number of cycles decode is unblocking
system.switch_cpus_1.dtb.rdAccesses         294620562                       # TLB accesses on read requests
system.switch_cpus_1.dtb.rdMisses             1361265                       # TLB misses on read requests
system.switch_cpus_1.dtb.wrAccesses          68156543                       # TLB accesses on write requests
system.switch_cpus_1.dtb.wrMisses                 667                       # TLB misses on write requests
system.switch_cpus_1.fetch.Branches         223731854                       # Number of branches that fetch encountered
system.switch_cpus_1.fetch.CacheLines       161685415                       # Number of cache lines fetched
system.switch_cpus_1.fetch.Cycles           449275187                       # Number of cycles fetch has run and was not squashing or blocked
system.switch_cpus_1.fetch.IcacheSquashes      7075698                       # Number of outstanding Icache misses that were squashed
system.switch_cpus_1.fetch.Insts           1360862324                       # Number of instructions fetch has processed
system.switch_cpus_1.fetch.ItlbSquashes            34                       # Number of outstanding ITLB misses that were squashed
system.switch_cpus_1.fetch.MiscStallCycles           12                       # Number of cycles fetch has spent waiting on interrupts, or bad addresses, or out of MSHRs
system.switch_cpus_1.fetch.PendingTrapStallCycles        45438                       # Number of stall cycles due to pending traps
system.switch_cpus_1.fetch.SquashCycles      51301376                       # Number of cycles fetch has spent squashing
system.switch_cpus_1.fetch.TlbCycles              374                       # Number of cycles fetch has spent waiting for tlb
system.switch_cpus_1.fetch.branchRate        0.341681                       # Number of branch fetches per cycle
system.switch_cpus_1.fetch.icacheStallCycles    179825580                       # Number of cycles fetch is stalled on an Icache miss
system.switch_cpus_1.fetch.predictedBranches     33963345                       # Number of branches that fetch has predicted taken
system.switch_cpus_1.fetch.rate              2.078294                       # Number of inst fetches per cycle
system.switch_cpus_1.fetch.rateDist::samples    654797279                       # Number of instructions fetched each cycle (Total)
system.switch_cpus_1.fetch.rateDist::mean     3.743499                       # Number of instructions fetched each cycle (Total)
system.switch_cpus_1.fetch.rateDist::stdev     3.721434                       # Number of instructions fetched each cycle (Total)
system.switch_cpus_1.fetch.rateDist::underflows            0      0.00%      0.00% # Number of instructions fetched each cycle (Total)
system.switch_cpus_1.fetch.rateDist::0      279174245     42.64%     42.64% # Number of instructions fetched each cycle (Total)
system.switch_cpus_1.fetch.rateDist::1       35773446      5.46%     48.10% # Number of instructions fetched each cycle (Total)
system.switch_cpus_1.fetch.rateDist::2        8039617      1.23%     49.33% # Number of instructions fetched each cycle (Total)
system.switch_cpus_1.fetch.rateDist::3       21705272      3.31%     52.64% # Number of instructions fetched each cycle (Total)
system.switch_cpus_1.fetch.rateDist::4       21721123      3.32%     55.96% # Number of instructions fetched each cycle (Total)
system.switch_cpus_1.fetch.rateDist::5       10227011      1.56%     57.52% # Number of instructions fetched each cycle (Total)
system.switch_cpus_1.fetch.rateDist::6        5561273      0.85%     58.37% # Number of instructions fetched each cycle (Total)
system.switch_cpus_1.fetch.rateDist::7       17885228      2.73%     61.10% # Number of instructions fetched each cycle (Total)
system.switch_cpus_1.fetch.rateDist::8      254710064     38.90%    100.00% # Number of instructions fetched each cycle (Total)
system.switch_cpus_1.fetch.rateDist::overflows            0      0.00%    100.00% # Number of instructions fetched each cycle (Total)
system.switch_cpus_1.fetch.rateDist::min_value            0                       # Number of instructions fetched each cycle (Total)
system.switch_cpus_1.fetch.rateDist::max_value            8                       # Number of instructions fetched each cycle (Total)
system.switch_cpus_1.fetch.rateDist::total    654797279                       # Number of instructions fetched each cycle (Total)
system.switch_cpus_1.fp_regfile_reads            9612                       # number of floating regfile reads
system.switch_cpus_1.fp_regfile_writes           5032                       # number of floating regfile writes
system.switch_cpus_1.idleCycles                   496                       # Total number of cycles that the CPU has spent unscheduled due to idling
system.switch_cpus_1.iew.branchMispredicts     30139794                       # Number of branch mispredicts detected at execute
system.switch_cpus_1.iew.exec_branches       86191931                       # Number of branches executed
system.switch_cpus_1.iew.exec_nop                   0                       # number of nop insts executed
system.switch_cpus_1.iew.exec_rate           2.148248                       # Inst execution rate
system.switch_cpus_1.iew.exec_refs          366994212                       # number of memory reference insts executed
system.switch_cpus_1.iew.exec_stores         68156540                       # Number of stores executed
system.switch_cpus_1.iew.exec_swp                   0                       # number of swp insts executed
system.switch_cpus_1.iew.iewBlockCycles     181825095                       # Number of cycles IEW is blocking
system.switch_cpus_1.iew.iewDispLoadInsts    394494519                       # Number of dispatched load instructions
system.switch_cpus_1.iew.iewDispNonSpecInsts          459                       # Number of dispatched non-speculative instructions
system.switch_cpus_1.iew.iewDispSquashedInsts        98665                       # Number of squashed instructions skipped by dispatch
system.switch_cpus_1.iew.iewDispStoreInsts    126270625                       # Number of dispatched store instructions
system.switch_cpus_1.iew.iewDispatchedInsts   1887685939                       # Number of instructions dispatched to IQ
system.switch_cpus_1.iew.iewExecLoadInsts    298837672                       # Number of load instructions executed
system.switch_cpus_1.iew.iewExecSquashedInsts     79765148                       # Number of squashed instructions skipped in execute
system.switch_cpus_1.iew.iewExecutedInsts   1406667929                       # Number of executed instructions
system.switch_cpus_1.iew.iewIQFullEvents       154576                       # Number of times the IQ has become full, causing a stall
system.switch_cpus_1.iew.iewIdleCycles              0                       # Number of cycles IEW is idle
system.switch_cpus_1.iew.iewLSQFullEvents       683417                       # Number of times the LSQ has become full, causing a stall
system.switch_cpus_1.iew.iewSquashCycles     25650688                       # Number of cycles IEW is squashing
system.switch_cpus_1.iew.iewUnblockCycles       829611                       # Number of cycles IEW is unblocking
system.switch_cpus_1.iew.lsq.thread0.blockedLoads            0                       # Number of blocked loads due to partial load-store forwarding
system.switch_cpus_1.iew.lsq.thread0.cacheBlocked       665153                       # Number of times an access to memory failed due to the cache being blocked
system.switch_cpus_1.iew.lsq.thread0.forwLoads       342167                       # Number of loads that had data forwarded from stores
system.switch_cpus_1.iew.lsq.thread0.ignoredResponses        18031                       # Number of memory responses ignored because the instruction is squashed
system.switch_cpus_1.iew.lsq.thread0.invAddrLoads            0                       # Number of loads ignored due to an invalid address
system.switch_cpus_1.iew.lsq.thread0.invAddrSwpfs            0                       # Number of software prefetches ignored due to an invalid address
system.switch_cpus_1.iew.lsq.thread0.memOrderViolation         8519                       # Number of memory ordering violations
system.switch_cpus_1.iew.lsq.thread0.rescheduledLoads           28                       # Number of loads that were rescheduled
system.switch_cpus_1.iew.lsq.thread0.squashedLoads    316277927                       # Number of loads squashed
system.switch_cpus_1.iew.lsq.thread0.squashedStores    115912065                       # Number of stores squashed
system.switch_cpus_1.iew.memOrderViolationEvents         8519                       # Number of memory order violations
system.switch_cpus_1.iew.predictedNotTakenIncorrect     26155964                       # Number of branches that were predicted not taken incorrectly
system.switch_cpus_1.iew.predictedTakenIncorrect      3983830                       # Number of branches that were predicted taken incorrectly
system.switch_cpus_1.iew.wb_consumers      1551268842                       # num instructions consuming a value
system.switch_cpus_1.iew.wb_count          1334248091                       # cumulative count of insts written-back
system.switch_cpus_1.iew.wb_fanout           0.692164                       # average fanout of values written-back
system.switch_cpus_1.iew.wb_producers      1073731748                       # num instructions producing a value
system.switch_cpus_1.iew.wb_rate             2.037649                       # insts written-back per cycle
system.switch_cpus_1.iew.wb_sent           1361668779                       # cumulative count of insts sent to commit
system.switch_cpus_1.int_regfile_reads     2202547429                       # number of integer regfile reads
system.switch_cpus_1.int_regfile_writes    1205824758                       # number of integer regfile writes
system.switch_cpus_1.ipc                     0.381797                       # IPC: Instructions Per Cycle
system.switch_cpus_1.ipc_total               0.381797                       # IPC: Total IPC of All Threads
system.switch_cpus_1.iq.FU_type_0::No_OpClass      1724073      0.12%      0.12% # Type of FU issued
system.switch_cpus_1.iq.FU_type_0::IntAlu   1073703950     72.23%     72.35% # Type of FU issued
system.switch_cpus_1.iq.FU_type_0::IntMult        20233      0.00%     72.35% # Type of FU issued
system.switch_cpus_1.iq.FU_type_0::IntDiv            0      0.00%     72.35% # Type of FU issued
system.switch_cpus_1.iq.FU_type_0::FloatAdd            0      0.00%     72.35% # Type of FU issued
system.switch_cpus_1.iq.FU_type_0::FloatCmp            0      0.00%     72.35% # Type of FU issued
system.switch_cpus_1.iq.FU_type_0::FloatCvt            0      0.00%     72.35% # Type of FU issued
system.switch_cpus_1.iq.FU_type_0::FloatMult            0      0.00%     72.35% # Type of FU issued
system.switch_cpus_1.iq.FU_type_0::FloatMultAcc            0      0.00%     72.35% # Type of FU issued
system.switch_cpus_1.iq.FU_type_0::FloatDiv            0      0.00%     72.35% # Type of FU issued
system.switch_cpus_1.iq.FU_type_0::FloatMisc            0      0.00%     72.35% # Type of FU issued
system.switch_cpus_1.iq.FU_type_0::FloatSqrt            0      0.00%     72.35% # Type of FU issued
system.switch_cpus_1.iq.FU_type_0::SimdAdd            0      0.00%     72.35% # Type of FU issued
system.switch_cpus_1.iq.FU_type_0::SimdAddAcc            0      0.00%     72.35% # Type of FU issued
system.switch_cpus_1.iq.FU_type_0::SimdAlu            0      0.00%     72.35% # Type of FU issued
system.switch_cpus_1.iq.FU_type_0::SimdCmp            0      0.00%     72.35% # Type of FU issued
system.switch_cpus_1.iq.FU_type_0::SimdCvt            0      0.00%     72.35% # Type of FU issued
system.switch_cpus_1.iq.FU_type_0::SimdMisc         1608      0.00%     72.35% # Type of FU issued
system.switch_cpus_1.iq.FU_type_0::SimdMult            0      0.00%     72.35% # Type of FU issued
system.switch_cpus_1.iq.FU_type_0::SimdMultAcc            0      0.00%     72.35% # Type of FU issued
system.switch_cpus_1.iq.FU_type_0::SimdShift            0      0.00%     72.35% # Type of FU issued
system.switch_cpus_1.iq.FU_type_0::SimdShiftAcc            0      0.00%     72.35% # Type of FU issued
system.switch_cpus_1.iq.FU_type_0::SimdDiv            0      0.00%     72.35% # Type of FU issued
system.switch_cpus_1.iq.FU_type_0::SimdSqrt            0      0.00%     72.35% # Type of FU issued
system.switch_cpus_1.iq.FU_type_0::SimdFloatAdd          660      0.00%     72.35% # Type of FU issued
system.switch_cpus_1.iq.FU_type_0::SimdFloatAlu            0      0.00%     72.35% # Type of FU issued
system.switch_cpus_1.iq.FU_type_0::SimdFloatCmp            0      0.00%     72.35% # Type of FU issued
system.switch_cpus_1.iq.FU_type_0::SimdFloatCvt         1608      0.00%     72.35% # Type of FU issued
system.switch_cpus_1.iq.FU_type_0::SimdFloatDiv            0      0.00%     72.35% # Type of FU issued
system.switch_cpus_1.iq.FU_type_0::SimdFloatMisc            0      0.00%     72.35% # Type of FU issued
system.switch_cpus_1.iq.FU_type_0::SimdFloatMult          947      0.00%     72.35% # Type of FU issued
system.switch_cpus_1.iq.FU_type_0::SimdFloatMultAcc            0      0.00%     72.35% # Type of FU issued
system.switch_cpus_1.iq.FU_type_0::SimdFloatSqrt            0      0.00%     72.35% # Type of FU issued
system.switch_cpus_1.iq.FU_type_0::SimdReduceAdd            0      0.00%     72.35% # Type of FU issued
system.switch_cpus_1.iq.FU_type_0::SimdReduceAlu            0      0.00%     72.35% # Type of FU issued
system.switch_cpus_1.iq.FU_type_0::SimdReduceCmp            0      0.00%     72.35% # Type of FU issued
system.switch_cpus_1.iq.FU_type_0::SimdFloatReduceAdd            0      0.00%     72.35% # Type of FU issued
system.switch_cpus_1.iq.FU_type_0::SimdFloatReduceCmp            0      0.00%     72.35% # Type of FU issued
system.switch_cpus_1.iq.FU_type_0::SimdAes            0      0.00%     72.35% # Type of FU issued
system.switch_cpus_1.iq.FU_type_0::SimdAesMix            0      0.00%     72.35% # Type of FU issued
system.switch_cpus_1.iq.FU_type_0::SimdSha1Hash            0      0.00%     72.35% # Type of FU issued
system.switch_cpus_1.iq.FU_type_0::SimdSha1Hash2            0      0.00%     72.35% # Type of FU issued
system.switch_cpus_1.iq.FU_type_0::SimdSha256Hash            0      0.00%     72.35% # Type of FU issued
system.switch_cpus_1.iq.FU_type_0::SimdSha256Hash2            0      0.00%     72.35% # Type of FU issued
system.switch_cpus_1.iq.FU_type_0::SimdShaSigma2            0      0.00%     72.35% # Type of FU issued
system.switch_cpus_1.iq.FU_type_0::SimdShaSigma3            0      0.00%     72.35% # Type of FU issued
system.switch_cpus_1.iq.FU_type_0::SimdPredAlu            0      0.00%     72.35% # Type of FU issued
system.switch_cpus_1.iq.FU_type_0::MemRead    332249734     22.35%     94.70% # Type of FU issued
system.switch_cpus_1.iq.FU_type_0::MemWrite     78729579      5.30%    100.00% # Type of FU issued
system.switch_cpus_1.iq.FU_type_0::FloatMemRead          690      0.00%    100.00% # Type of FU issued
system.switch_cpus_1.iq.FU_type_0::FloatMemWrite            0      0.00%    100.00% # Type of FU issued
system.switch_cpus_1.iq.FU_type_0::IprAccess            0      0.00%    100.00% # Type of FU issued
system.switch_cpus_1.iq.FU_type_0::InstPrefetch            0      0.00%    100.00% # Type of FU issued
system.switch_cpus_1.iq.FU_type_0::total   1486433082                       # Type of FU issued
system.switch_cpus_1.iq.fp_alu_accesses          5513                       # Number of floating point alu accesses
system.switch_cpus_1.iq.fp_inst_queue_reads        11026                       # Number of floating instruction queue reads
system.switch_cpus_1.iq.fp_inst_queue_wakeup_accesses         5472                       # Number of floating instruction queue wakeup accesses
system.switch_cpus_1.iq.fp_inst_queue_writes         9244                       # Number of floating instruction queue writes
system.switch_cpus_1.iq.fu_busy_cnt          16086022                       # FU busy when requested
system.switch_cpus_1.iq.fu_busy_rate         0.010822                       # FU busy rate (busy events/executed inst)
system.switch_cpus_1.iq.fu_full::No_OpClass            0      0.00%      0.00% # attempts to use FU when none available
system.switch_cpus_1.iq.fu_full::IntAlu      13448067     83.60%     83.60% # attempts to use FU when none available
system.switch_cpus_1.iq.fu_full::IntMult            0      0.00%     83.60% # attempts to use FU when none available
system.switch_cpus_1.iq.fu_full::IntDiv             0      0.00%     83.60% # attempts to use FU when none available
system.switch_cpus_1.iq.fu_full::FloatAdd            0      0.00%     83.60% # attempts to use FU when none available
system.switch_cpus_1.iq.fu_full::FloatCmp            0      0.00%     83.60% # attempts to use FU when none available
system.switch_cpus_1.iq.fu_full::FloatCvt            0      0.00%     83.60% # attempts to use FU when none available
system.switch_cpus_1.iq.fu_full::FloatMult            0      0.00%     83.60% # attempts to use FU when none available
system.switch_cpus_1.iq.fu_full::FloatMultAcc            0      0.00%     83.60% # attempts to use FU when none available
system.switch_cpus_1.iq.fu_full::FloatDiv            0      0.00%     83.60% # attempts to use FU when none available
system.switch_cpus_1.iq.fu_full::FloatMisc            0      0.00%     83.60% # attempts to use FU when none available
system.switch_cpus_1.iq.fu_full::FloatSqrt            0      0.00%     83.60% # attempts to use FU when none available
system.switch_cpus_1.iq.fu_full::SimdAdd            0      0.00%     83.60% # attempts to use FU when none available
system.switch_cpus_1.iq.fu_full::SimdAddAcc            0      0.00%     83.60% # attempts to use FU when none available
system.switch_cpus_1.iq.fu_full::SimdAlu            0      0.00%     83.60% # attempts to use FU when none available
system.switch_cpus_1.iq.fu_full::SimdCmp            0      0.00%     83.60% # attempts to use FU when none available
system.switch_cpus_1.iq.fu_full::SimdCvt            0      0.00%     83.60% # attempts to use FU when none available
system.switch_cpus_1.iq.fu_full::SimdMisc            0      0.00%     83.60% # attempts to use FU when none available
system.switch_cpus_1.iq.fu_full::SimdMult            0      0.00%     83.60% # attempts to use FU when none available
system.switch_cpus_1.iq.fu_full::SimdMultAcc            0      0.00%     83.60% # attempts to use FU when none available
system.switch_cpus_1.iq.fu_full::SimdShift            0      0.00%     83.60% # attempts to use FU when none available
system.switch_cpus_1.iq.fu_full::SimdShiftAcc            0      0.00%     83.60% # attempts to use FU when none available
system.switch_cpus_1.iq.fu_full::SimdDiv            0      0.00%     83.60% # attempts to use FU when none available
system.switch_cpus_1.iq.fu_full::SimdSqrt            0      0.00%     83.60% # attempts to use FU when none available
system.switch_cpus_1.iq.fu_full::SimdFloatAdd            0      0.00%     83.60% # attempts to use FU when none available
system.switch_cpus_1.iq.fu_full::SimdFloatAlu            0      0.00%     83.60% # attempts to use FU when none available
system.switch_cpus_1.iq.fu_full::SimdFloatCmp            0      0.00%     83.60% # attempts to use FU when none available
system.switch_cpus_1.iq.fu_full::SimdFloatCvt            0      0.00%     83.60% # attempts to use FU when none available
system.switch_cpus_1.iq.fu_full::SimdFloatDiv            0      0.00%     83.60% # attempts to use FU when none available
system.switch_cpus_1.iq.fu_full::SimdFloatMisc            0      0.00%     83.60% # attempts to use FU when none available
system.switch_cpus_1.iq.fu_full::SimdFloatMult            0      0.00%     83.60% # attempts to use FU when none available
system.switch_cpus_1.iq.fu_full::SimdFloatMultAcc            0      0.00%     83.60% # attempts to use FU when none available
system.switch_cpus_1.iq.fu_full::SimdFloatSqrt            0      0.00%     83.60% # attempts to use FU when none available
system.switch_cpus_1.iq.fu_full::SimdReduceAdd            0      0.00%     83.60% # attempts to use FU when none available
system.switch_cpus_1.iq.fu_full::SimdReduceAlu            0      0.00%     83.60% # attempts to use FU when none available
system.switch_cpus_1.iq.fu_full::SimdReduceCmp            0      0.00%     83.60% # attempts to use FU when none available
system.switch_cpus_1.iq.fu_full::SimdFloatReduceAdd            0      0.00%     83.60% # attempts to use FU when none available
system.switch_cpus_1.iq.fu_full::SimdFloatReduceCmp            0      0.00%     83.60% # attempts to use FU when none available
system.switch_cpus_1.iq.fu_full::SimdAes            0      0.00%     83.60% # attempts to use FU when none available
system.switch_cpus_1.iq.fu_full::SimdAesMix            0      0.00%     83.60% # attempts to use FU when none available
system.switch_cpus_1.iq.fu_full::SimdSha1Hash            0      0.00%     83.60% # attempts to use FU when none available
system.switch_cpus_1.iq.fu_full::SimdSha1Hash2            0      0.00%     83.60% # attempts to use FU when none available
system.switch_cpus_1.iq.fu_full::SimdSha256Hash            0      0.00%     83.60% # attempts to use FU when none available
system.switch_cpus_1.iq.fu_full::SimdSha256Hash2            0      0.00%     83.60% # attempts to use FU when none available
system.switch_cpus_1.iq.fu_full::SimdShaSigma2            0      0.00%     83.60% # attempts to use FU when none available
system.switch_cpus_1.iq.fu_full::SimdShaSigma3            0      0.00%     83.60% # attempts to use FU when none available
system.switch_cpus_1.iq.fu_full::SimdPredAlu            0      0.00%     83.60% # attempts to use FU when none available
system.switch_cpus_1.iq.fu_full::MemRead      2614230     16.25%     99.85% # attempts to use FU when none available
system.switch_cpus_1.iq.fu_full::MemWrite        23725      0.15%    100.00% # attempts to use FU when none available
system.switch_cpus_1.iq.fu_full::FloatMemRead            0      0.00%    100.00% # attempts to use FU when none available
system.switch_cpus_1.iq.fu_full::FloatMemWrite            0      0.00%    100.00% # attempts to use FU when none available
system.switch_cpus_1.iq.fu_full::IprAccess            0      0.00%    100.00% # attempts to use FU when none available
system.switch_cpus_1.iq.fu_full::InstPrefetch            0      0.00%    100.00% # attempts to use FU when none available
system.switch_cpus_1.iq.int_alu_accesses   1500789518                       # Number of integer alu accesses
system.switch_cpus_1.iq.int_inst_queue_reads   3651774380                       # Number of integer instruction queue reads
system.switch_cpus_1.iq.int_inst_queue_wakeup_accesses   1334242619                       # Number of integer instruction queue wakeup accesses
system.switch_cpus_1.iq.int_inst_queue_writes   3343746506                       # Number of integer instruction queue writes
system.switch_cpus_1.iq.iqInstsAdded       1887684621                       # Number of instructions added to the IQ (excludes non-spec)
system.switch_cpus_1.iq.iqInstsIssued      1486433082                       # Number of instructions issued
system.switch_cpus_1.iq.iqNonSpecInstsAdded         1318                       # Number of non-speculative instructions added to the IQ
system.switch_cpus_1.iq.iqSquashedInstsExamined   1456061536                       # Number of squashed instructions iterated over during squash; mainly for profiling
system.switch_cpus_1.iq.iqSquashedInstsIssued      8035946                       # Number of squashed instructions issued
system.switch_cpus_1.iq.iqSquashedNonSpecRemoved         1288                       # Number of squashed non-spec instructions that were removed
system.switch_cpus_1.iq.iqSquashedOperandsExamined   1973211244                       # Number of squashed operands that are examined and possibly removed from graph
system.switch_cpus_1.iq.issued_per_cycle::samples    654797279                       # Number of insts issued each cycle
system.switch_cpus_1.iq.issued_per_cycle::mean     2.270066                       # Number of insts issued each cycle
system.switch_cpus_1.iq.issued_per_cycle::stdev     2.754303                       # Number of insts issued each cycle
system.switch_cpus_1.iq.issued_per_cycle::underflows            0      0.00%      0.00% # Number of insts issued each cycle
system.switch_cpus_1.iq.issued_per_cycle::0    340665818     52.03%     52.03% # Number of insts issued each cycle
system.switch_cpus_1.iq.issued_per_cycle::1     26696131      4.08%     56.10% # Number of insts issued each cycle
system.switch_cpus_1.iq.issued_per_cycle::2     28880615      4.41%     60.51% # Number of insts issued each cycle
system.switch_cpus_1.iq.issued_per_cycle::3     27055800      4.13%     64.65% # Number of insts issued each cycle
system.switch_cpus_1.iq.issued_per_cycle::4     54345783      8.30%     72.95% # Number of insts issued each cycle
system.switch_cpus_1.iq.issued_per_cycle::5     60921764      9.30%     82.25% # Number of insts issued each cycle
system.switch_cpus_1.iq.issued_per_cycle::6     45063898      6.88%     89.13% # Number of insts issued each cycle
system.switch_cpus_1.iq.issued_per_cycle::7     40906779      6.25%     95.38% # Number of insts issued each cycle
system.switch_cpus_1.iq.issued_per_cycle::8     30260691      4.62%    100.00% # Number of insts issued each cycle
system.switch_cpus_1.iq.issued_per_cycle::overflows            0      0.00%    100.00% # Number of insts issued each cycle
system.switch_cpus_1.iq.issued_per_cycle::min_value            0                       # Number of insts issued each cycle
system.switch_cpus_1.iq.issued_per_cycle::max_value            8                       # Number of insts issued each cycle
system.switch_cpus_1.iq.issued_per_cycle::total    654797279                       # Number of insts issued each cycle
system.switch_cpus_1.iq.rate                 2.270064                       # Inst issue rate
system.switch_cpus_1.iq.vec_alu_accesses            0                       # Number of vector alu accesses
system.switch_cpus_1.iq.vec_inst_queue_reads            0                       # Number of vector instruction queue reads
system.switch_cpus_1.iq.vec_inst_queue_wakeup_accesses            0                       # Number of vector instruction queue wakeup accesses
system.switch_cpus_1.iq.vec_inst_queue_writes            0                       # Number of vector instruction queue writes
system.switch_cpus_1.itb.rdAccesses                 0                       # TLB accesses on read requests
system.switch_cpus_1.itb.rdMisses                   0                       # TLB misses on read requests
system.switch_cpus_1.itb.wrAccesses         161700183                       # TLB accesses on write requests
system.switch_cpus_1.itb.wrMisses               14781                       # TLB misses on write requests
system.switch_cpus_1.memDep0.conflictingLoads     25952319                       # Number of conflicting loads.
system.switch_cpus_1.memDep0.conflictingStores     17066123                       # Number of conflicting stores.
system.switch_cpus_1.memDep0.insertedLoads    394494519                       # Number of loads inserted to the mem dependence unit.
system.switch_cpus_1.memDep0.insertedStores    126270625                       # Number of stores inserted to the mem dependence unit.
system.switch_cpus_1.misc_regfile_reads     611819375                       # number of misc regfile reads
system.switch_cpus_1.numCycles              654797775                       # number of cpu cycles simulated
system.switch_cpus_1.numWorkItemsCompleted            0                       # number of work items this cpu completed
system.switch_cpus_1.numWorkItemsStarted            0                       # number of work items this cpu started
system.switch_cpus_1.rename.BlockCycles     190634025                       # Number of cycles rename is blocking
system.switch_cpus_1.rename.CommittedMaps    515228526                       # Number of HB maps that are committed
system.switch_cpus_1.rename.IQFullEvents      1432353                       # Number of times rename has blocked due to IQ full
system.switch_cpus_1.rename.IdleCycles      137607226                       # Number of cycles rename is idle
system.switch_cpus_1.rename.LQFullEvents      8579560                       # Number of times rename has blocked due to LQ full
system.switch_cpus_1.rename.ROBFullEvents      3402224                       # Number of times rename has blocked due to ROB full
system.switch_cpus_1.rename.RenameLookups   5732860761                       # Number of register rename lookups that rename has made
system.switch_cpus_1.rename.RenamedInsts   2134781691                       # Number of instructions processed by rename
system.switch_cpus_1.rename.RenamedOperands   2400407634                       # Number of destination operands rename has renamed
system.switch_cpus_1.rename.RunCycles       289386132                       # Number of cycles rename is running
system.switch_cpus_1.rename.SQFullEvents         1686                       # Number of times rename has blocked due to SQ full
system.switch_cpus_1.rename.SquashCycles     25650688                       # Number of cycles rename is squashing
system.switch_cpus_1.rename.UnblockCycles     11518464                       # Number of cycles rename is unblocking
system.switch_cpus_1.rename.UndoneMaps     1885179039                       # Number of HB maps that are undone due to squashing
system.switch_cpus_1.rename.fp_rename_lookups        13089                       # Number of floating rename lookups
system.switch_cpus_1.rename.int_rename_lookups   3722950881                       # Number of integer rename lookups
system.switch_cpus_1.rename.serializeStallCycles          739                       # count of cycles rename stalled for serializing inst
system.switch_cpus_1.rename.serializingInsts           18                       # count of serializing insts renamed
system.switch_cpus_1.rename.skidInsts        24383716                       # count of insts added to the skid buffer
system.switch_cpus_1.rename.tempSerializingInsts           18                       # count of temporary serializing insts renamed
system.switch_cpus_1.rob.rob_reads         2314714996                       # The number of ROB reads
system.switch_cpus_1.rob.rob_writes        3983991756                       # The number of ROB writes
system.switch_cpus_1.timesIdled                    50                       # Number of times that the entire CPU went into an idle state and unscheduled itself
system.tol2bus.snoop_filter.hit_multi_requests            0                       # Number of requests hitting in the snoop filter with multiple (>1) holders of the requested data.
system.tol2bus.snoop_filter.hit_multi_snoops            0                       # Number of snoops hitting in the snoop filter with multiple (>1) holders of the requested data.
system.tol2bus.snoop_filter.hit_single_requests      7390558                       # Number of requests hitting in the snoop filter with a single holder of the requested data.
system.tol2bus.snoop_filter.hit_single_snoops            0                       # Number of snoops hitting in the snoop filter with a single holder of the requested data.
system.tol2bus.snoop_filter.tot_requests     12955865                       # Total number of requests made to the snoop filter.
system.tol2bus.snoop_filter.tot_snoops              0                       # Total number of snoops made to the snoop filter.
system.tol3bus.snoop_filter.hit_multi_requests            0                       # Number of requests hitting in the snoop filter with multiple (>1) holders of the requested data.
system.tol3bus.snoop_filter.hit_multi_snoops            0                       # Number of snoops hitting in the snoop filter with multiple (>1) holders of the requested data.
system.tol3bus.snoop_filter.hit_single_requests      3255322                       # Number of requests hitting in the snoop filter with a single holder of the requested data.
system.tol3bus.snoop_filter.hit_single_snoops            0                       # Number of snoops hitting in the snoop filter with a single holder of the requested data.
system.tol3bus.snoop_filter.tot_requests      6162401                       # Total number of requests made to the snoop filter.
system.tol3bus.snoop_filter.tot_snoops              0                       # Total number of snoops made to the snoop filter.
system.membus.trans_dist::ReadResp                128                       # Transaction distribution
system.membus.trans_dist::WritebackDirty          276                       # Transaction distribution
system.membus.trans_dist::CleanEvict              108                       # Transaction distribution
system.membus.trans_dist::ReadExReq               214                       # Transaction distribution
system.membus.trans_dist::ReadExResp              214                       # Transaction distribution
system.membus.trans_dist::ReadSharedReq           128                       # Transaction distribution
system.membus.pkt_count_system.l3.mem_side::system.mem_ctrls.port         1068                       # Packet count per connected master and slave (bytes)
system.membus.pkt_count_system.l3.mem_side::total         1068                       # Packet count per connected master and slave (bytes)
system.membus.pkt_count::total                   1068                       # Packet count per connected master and slave (bytes)
system.membus.pkt_size_system.l3.mem_side::system.mem_ctrls.port        39552                       # Cumulative packet size per connected master and slave (bytes)
system.membus.pkt_size_system.l3.mem_side::total        39552                       # Cumulative packet size per connected master and slave (bytes)
system.membus.pkt_size::total                   39552                       # Cumulative packet size per connected master and slave (bytes)
system.membus.snoops                                0                       # Total snoops (count)
system.membus.snoopTraffic                          0                       # Total snoop traffic (bytes)
system.membus.snoop_fanout::samples               342                       # Request fanout histogram
system.membus.snoop_fanout::mean                    0                       # Request fanout histogram
system.membus.snoop_fanout::stdev                   0                       # Request fanout histogram
system.membus.snoop_fanout::underflows              0      0.00%      0.00% # Request fanout histogram
system.membus.snoop_fanout::0                     342    100.00%    100.00% # Request fanout histogram
system.membus.snoop_fanout::1                       0      0.00%    100.00% # Request fanout histogram
system.membus.snoop_fanout::overflows               0      0.00%    100.00% # Request fanout histogram
system.membus.snoop_fanout::min_value               0                       # Request fanout histogram
system.membus.snoop_fanout::max_value               0                       # Request fanout histogram
system.membus.snoop_fanout::total                 342                       # Request fanout histogram
system.membus.reqLayer2.occupancy             1930000                       # Layer occupancy (ticks)
system.membus.reqLayer2.utilization               0.0                       # Layer utilization (%)
system.membus.respLayer1.occupancy            1827000                       # Layer occupancy (ticks)
system.membus.respLayer1.utilization              0.0                       # Layer utilization (%)
system.membus.power_state.pwrStateResidencyTicks::UNDEFINED 1498254386500                       # Cumulative time (in ticks) in various power states
system.switch_cpus_1.dtb.walker.power_state.pwrStateResidencyTicks::UNDEFINED 1498254386500                       # Cumulative time (in ticks) in various power states
system.switch_cpus_1.itb.walker.power_state.pwrStateResidencyTicks::UNDEFINED 1498254386500                       # Cumulative time (in ticks) in various power states
system.switch_cpus_1.power_state.pwrStateResidencyTicks::OFF 1498254386500                       # Cumulative time (in ticks) in various power states
system.switch_cpus.dtb.walker.power_state.pwrStateResidencyTicks::UNDEFINED 1498254386500                       # Cumulative time (in ticks) in various power states
system.switch_cpus.itb.walker.power_state.pwrStateResidencyTicks::UNDEFINED 1498254386500                       # Cumulative time (in ticks) in various power states
system.switch_cpus.power_state.numTransitions            1                       # Number of power state transitions
system.switch_cpus.power_state.pwrStateResidencyTicks::OFF 1498254386500                       # Cumulative time (in ticks) in various power states
system.tol2bus.trans_dist::ReadResp           5514648                       # Transaction distribution
system.tol2bus.trans_dist::WritebackDirty      2225621                       # Transaction distribution
system.tol2bus.trans_dist::WritebackClean           41                       # Transaction distribution
system.tol2bus.trans_dist::CleanEvict         3689452                       # Transaction distribution
system.tol2bus.trans_dist::UpgradeReq         1825251                       # Transaction distribution
system.tol2bus.trans_dist::UpgradeResp        1825251                       # Transaction distribution
system.tol2bus.trans_dist::ReadExReq            50659                       # Transaction distribution
system.tol2bus.trans_dist::ReadExResp           50659                       # Transaction distribution
system.tol2bus.trans_dist::ReadCleanReq       5514648                       # Transaction distribution
system.tol2bus.pkt_count_system.cpu.icache.mem_side::system.l2.cpu_side          123                       # Packet count per connected master and slave (bytes)
system.tol2bus.pkt_count_system.cpu.dcache.mem_side::system.l2.cpu_side     20346300                       # Packet count per connected master and slave (bytes)
system.tol2bus.pkt_count::total              20346423                       # Packet count per connected master and slave (bytes)
system.tol2bus.pkt_size_system.cpu.icache.mem_side::system.l2.cpu_side         5248                       # Cumulative packet size per connected master and slave (bytes)
system.tol2bus.pkt_size_system.cpu.dcache.mem_side::system.l2.cpu_side    476231744                       # Cumulative packet size per connected master and slave (bytes)
system.tol2bus.pkt_size::total              476236992                       # Cumulative packet size per connected master and slave (bytes)
system.tol2bus.snoops                          349807                       # Total snoops (count)
system.tol2bus.snoopTraffic                  22385024                       # Total snoop traffic (bytes)
system.tol2bus.snoop_fanout::samples          7740365                       # Request fanout histogram
system.tol2bus.snoop_fanout::mean                   0                       # Request fanout histogram
system.tol2bus.snoop_fanout::stdev                  0                       # Request fanout histogram
system.tol2bus.snoop_fanout::underflows             0      0.00%      0.00% # Request fanout histogram
system.tol2bus.snoop_fanout::0                7740365    100.00%    100.00% # Request fanout histogram
system.tol2bus.snoop_fanout::1                      0      0.00%    100.00% # Request fanout histogram
system.tol2bus.snoop_fanout::2                      0      0.00%    100.00% # Request fanout histogram
system.tol2bus.snoop_fanout::3                      0      0.00%    100.00% # Request fanout histogram
system.tol2bus.snoop_fanout::4                      0      0.00%    100.00% # Request fanout histogram
system.tol2bus.snoop_fanout::overflows              0      0.00%    100.00% # Request fanout histogram
system.tol2bus.snoop_fanout::min_value              0                       # Request fanout histogram
system.tol2bus.snoop_fanout::max_value              0                       # Request fanout histogram
system.tol2bus.snoop_fanout::total            7740365                       # Request fanout histogram
system.tol2bus.reqLayer0.occupancy         8353828500                       # Layer occupancy (ticks)
system.tol2bus.reqLayer0.utilization              2.6                       # Layer utilization (%)
system.tol2bus.respLayer1.occupancy        9260524500                       # Layer occupancy (ticks)
system.tol2bus.respLayer1.utilization             2.8                       # Layer utilization (%)
system.tol2bus.respLayer0.occupancy             61500                       # Layer occupancy (ticks)
system.tol2bus.respLayer0.utilization             0.0                       # Layer utilization (%)
system.tol2bus.power_state.pwrStateResidencyTicks::UNDEFINED 1498254386500                       # Cumulative time (in ticks) in various power states
system.voltage_domain.voltage                       1                       # Voltage in Volts
system.clk_domain.clock                          1000                       # Clock period in ticks
system.l2.demand_hits::.switch_cpus_1.data      2658228                       # number of demand (read+write) hits
system.l2.demand_hits::total                  2658228                       # number of demand (read+write) hits
system.l2.overall_hits::.switch_cpus_1.data      2658228                       # number of overall hits
system.l2.overall_hits::total                 2658228                       # number of overall hits
system.l2.demand_misses::.switch_cpus_1.inst           41                       # number of demand (read+write) misses
system.l2.demand_misses::.switch_cpus_1.data      2907038                       # number of demand (read+write) misses
system.l2.demand_misses::total                2907079                       # number of demand (read+write) misses
system.l2.overall_misses::.switch_cpus_1.inst           41                       # number of overall misses
system.l2.overall_misses::.switch_cpus_1.data      2907038                       # number of overall misses
system.l2.overall_misses::total               2907079                       # number of overall misses
system.l2.demand_miss_latency::.switch_cpus_1.inst      4120000                       # number of demand (read+write) miss cycles
system.l2.demand_miss_latency::.switch_cpus_1.data  83019952500                       # number of demand (read+write) miss cycles
system.l2.demand_miss_latency::total      83024072500                       # number of demand (read+write) miss cycles
system.l2.overall_miss_latency::.switch_cpus_1.inst      4120000                       # number of overall miss cycles
system.l2.overall_miss_latency::.switch_cpus_1.data  83019952500                       # number of overall miss cycles
system.l2.overall_miss_latency::total     83024072500                       # number of overall miss cycles
system.l2.demand_accesses::.switch_cpus_1.inst           41                       # number of demand (read+write) accesses
system.l2.demand_accesses::.switch_cpus_1.data      5565266                       # number of demand (read+write) accesses
system.l2.demand_accesses::total              5565307                       # number of demand (read+write) accesses
system.l2.overall_accesses::.switch_cpus_1.inst           41                       # number of overall (read+write) accesses
system.l2.overall_accesses::.switch_cpus_1.data      5565266                       # number of overall (read+write) accesses
system.l2.overall_accesses::total             5565307                       # number of overall (read+write) accesses
system.l2.demand_miss_rate::.switch_cpus_1.inst            1                       # miss rate for demand accesses
system.l2.demand_miss_rate::.switch_cpus_1.data     0.522354                       # miss rate for demand accesses
system.l2.demand_miss_rate::total            0.522357                       # miss rate for demand accesses
system.l2.overall_miss_rate::.switch_cpus_1.inst            1                       # miss rate for overall accesses
[...]
system.cpu.dcache.demand_accesses::.switch_cpus.data     17735474                       # number of demand (read+write) accesses
system.cpu.dcache.demand_accesses::.switch_cpus_1.data    304134140                       # number of demand (read+write) accesses
system.cpu.dcache.demand_accesses::total    687242622                       # number of demand (read+write) accesses
system.cpu.dcache.overall_accesses::.cpu.data    365517436                       # number of overall (read+write) accesses
system.cpu.dcache.overall_accesses::.switch_cpus.data     17735474                       # number of overall (read+write) accesses
system.cpu.dcache.overall_accesses::.switch_cpus_1.data    304134140                       # number of overall (read+write) accesses
system.cpu.dcache.overall_accesses::total    687387050                       # number of overall (read+write) accesses
system.cpu.dcache.demand_miss_rate::.cpu.data     0.061168                       # miss rate for demand accesses
system.cpu.dcache.demand_miss_rate::.switch_cpus.data     0.075473                       # miss rate for demand accesses
system.cpu.dcache.demand_miss_rate::.switch_cpus_1.data     0.051032                       # miss rate for demand accesses
system.cpu.dcache.demand_miss_rate::total     0.057051                       # miss rate for demand accesses
system.cpu.dcache.overall_miss_rate::.cpu.data     0.061539                       # miss rate for overall accesses
system.cpu.dcache.overall_miss_rate::.switch_cpus.data     0.075473                       # miss rate for overall accesses
system.cpu.dcache.overall_miss_rate::.switch_cpus_1.data     0.051032                       # miss rate for overall accesses
system.cpu.dcache.overall_miss_rate::total     0.057250                       # miss rate for overall accesses
system.cpu.dcache.demand_avg_miss_latency::.switch_cpus.data 19710.195832                       # average overall miss latency
system.cpu.dcache.demand_avg_miss_latency::.switch_cpus_1.data 17577.503597                       # average overall miss latency
system.cpu.dcache.demand_avg_miss_latency::total  7630.948362                       # average overall miss latency
system.cpu.dcache.overall_avg_miss_latency::.switch_cpus.data 19710.195832                       # average overall miss latency
system.cpu.dcache.overall_avg_miss_latency::.switch_cpus_1.data 17577.503597                       # average overall miss latency
system.cpu.dcache.overall_avg_miss_latency::total  7602.942040                       # average overall miss latency
system.cpu.dcache.blocked_cycles::no_mshrs      8825567                       # number of cycles access was blocked
system.cpu.dcache.blocked_cycles::no_targets            0                       # number of cycles access was blocked
system.cpu.dcache.blocked::no_mshrs            704908                       # number of cycles access was blocked
system.cpu.dcache.blocked::no_targets               0                       # number of cycles access was blocked
system.cpu.dcache.avg_blocked_cycles::no_mshrs    12.520169                       # average number of cycles each access was blocked
system.cpu.dcache.avg_blocked_cycles::no_targets          nan                       # average number of cycles each access was blocked
system.cpu.dcache.writebacks::.writebacks      8883289                       # number of writebacks
system.cpu.dcache.writebacks::total           8883289                       # number of writebacks
system.cpu.dcache.demand_mshr_hits::.switch_cpus_1.data      8130074                       # number of demand (read+write) MSHR hits
system.cpu.dcache.demand_mshr_hits::total      8130074                       # number of demand (read+write) MSHR hits
system.cpu.dcache.overall_mshr_hits::.switch_cpus_1.data      8130074                       # number of overall MSHR hits
system.cpu.dcache.overall_mshr_hits::total      8130074                       # number of overall MSHR hits
system.cpu.dcache.demand_mshr_misses::.switch_cpus.data      1338547                       # number of demand (read+write) MSHR misses
system.cpu.dcache.demand_mshr_misses::.switch_cpus_1.data      7390491                       # number of demand (read+write) MSHR misses
system.cpu.dcache.demand_mshr_misses::total      8729038                       # number of demand (read+write) MSHR misses
system.cpu.dcache.overall_mshr_misses::.switch_cpus.data      1338547                       # number of overall MSHR misses
system.cpu.dcache.overall_mshr_misses::.switch_cpus_1.data      7390491                       # number of overall MSHR misses
system.cpu.dcache.overall_mshr_misses::total      8729038                       # number of overall MSHR misses
system.cpu.dcache.demand_mshr_miss_latency::.switch_cpus.data  25044476500                       # number of demand (read+write) MSHR miss cycles
system.cpu.dcache.demand_mshr_miss_latency::.switch_cpus_1.data 139978511617                       # number of demand (read+write) MSHR miss cycles
system.cpu.dcache.demand_mshr_miss_latency::total 165022988117                       # number of demand (read+write) MSHR miss cycles
system.cpu.dcache.overall_mshr_miss_latency::.switch_cpus.data  25044476500                       # number of overall MSHR miss cycles
system.cpu.dcache.overall_mshr_miss_latency::.switch_cpus_1.data 139978511617                       # number of overall MSHR miss cycles
system.cpu.dcache.overall_mshr_miss_latency::total 165022988117                       # number of overall MSHR miss cycles
system.cpu.dcache.demand_mshr_miss_rate::.switch_cpus.data     0.075473                       # mshr miss rate for demand accesses
system.cpu.dcache.demand_mshr_miss_rate::.switch_cpus_1.data     0.024300                       # mshr miss rate for demand accesses
system.cpu.dcache.demand_mshr_miss_rate::total     0.012702                       # mshr miss rate for demand accesses
system.cpu.dcache.overall_mshr_miss_rate::.switch_cpus.data     0.075473                       # mshr miss rate for overall accesses
system.cpu.dcache.overall_mshr_miss_rate::.switch_cpus_1.data     0.024300                       # mshr miss rate for overall accesses
system.cpu.dcache.overall_mshr_miss_rate::total     0.012699                       # mshr miss rate for overall accesses
system.cpu.dcache.demand_avg_mshr_miss_latency::.switch_cpus.data 18710.195832                       # average overall mshr miss latency
system.cpu.dcache.demand_avg_mshr_miss_latency::.switch_cpus_1.data 18940.353438                       # average overall mshr miss latency
system.cpu.dcache.demand_avg_mshr_miss_latency::total 18905.060113                       # average overall mshr miss latency
system.cpu.dcache.overall_avg_mshr_miss_latency::.switch_cpus.data 18710.195832                       # average overall mshr miss latency
system.cpu.dcache.overall_avg_mshr_miss_latency::.switch_cpus_1.data 18940.353438                       # average overall mshr miss latency
system.cpu.dcache.overall_avg_mshr_miss_latency::total 18905.060113                       # average overall mshr miss latency
system.cpu.dcache.replacements               23331484                       # number of replacements
system.cpu.dcache.ReadReq_hits::.cpu.data    290084385                       # number of ReadReq hits
system.cpu.dcache.ReadReq_hits::.switch_cpus.data     14669087                       # number of ReadReq hits
system.cpu.dcache.ReadReq_hits::.switch_cpus_1.data    280130928                       # number of ReadReq hits
system.cpu.dcache.ReadReq_hits::total       584884400                       # number of ReadReq hits
system.cpu.dcache.ReadReq_misses::.cpu.data     15689524                       # number of ReadReq misses
system.cpu.dcache.ReadReq_misses::.switch_cpus.data       990532                       # number of ReadReq misses
system.cpu.dcache.ReadReq_misses::.switch_cpus_1.data     13644655                       # number of ReadReq misses
system.cpu.dcache.ReadReq_misses::total      30324711                       # number of ReadReq misses
system.cpu.dcache.ReadReq_miss_latency::.switch_cpus.data  22122085500                       # number of ReadReq miss cycles
system.cpu.dcache.ReadReq_miss_latency::.switch_cpus_1.data 250113015500                       # number of ReadReq miss cycles
system.cpu.dcache.ReadReq_miss_latency::total 272235101000                       # number of ReadReq miss cycles
system.cpu.dcache.ReadReq_accesses::.cpu.data    305773909                       # number of ReadReq accesses(hits+misses)
system.cpu.dcache.ReadReq_accesses::.switch_cpus.data     15659619                       # number of ReadReq accesses(hits+misses)
system.cpu.dcache.ReadReq_accesses::.switch_cpus_1.data    293775583                       # number of ReadReq accesses(hits+misses)
system.cpu.dcache.ReadReq_accesses::total    615209111                       # number of ReadReq accesses(hits+misses)
system.cpu.dcache.ReadReq_miss_rate::.cpu.data     0.051311                       # miss rate for ReadReq accesses
system.cpu.dcache.ReadReq_miss_rate::.switch_cpus.data     0.063254                       # miss rate for ReadReq accesses
system.cpu.dcache.ReadReq_miss_rate::.switch_cpus_1.data     0.046446                       # miss rate for ReadReq accesses
system.cpu.dcache.ReadReq_miss_rate::total     0.049292                       # miss rate for ReadReq accesses
system.cpu.dcache.ReadReq_avg_miss_latency::.switch_cpus.data 22333.539452                       # average ReadReq miss latency
system.cpu.dcache.ReadReq_avg_miss_latency::.switch_cpus_1.data 18330.475596                       # average ReadReq miss latency
system.cpu.dcache.ReadReq_avg_miss_latency::total  8977.335382                       # average ReadReq miss latency
system.cpu.dcache.ReadReq_mshr_hits::.switch_cpus_1.data      8130048                       # number of ReadReq MSHR hits
system.cpu.dcache.ReadReq_mshr_hits::total      8130048                       # number of ReadReq MSHR hits
system.cpu.dcache.ReadReq_mshr_misses::.switch_cpus.data       990532                       # number of ReadReq MSHR misses
system.cpu.dcache.ReadReq_mshr_misses::.switch_cpus_1.data      5514607                       # number of ReadReq MSHR misses
system.cpu.dcache.ReadReq_mshr_misses::total      6505139                       # number of ReadReq MSHR misses
system.cpu.dcache.ReadReq_mshr_miss_latency::.switch_cpus.data  21131553500                       # number of ReadReq MSHR miss cycles
system.cpu.dcache.ReadReq_mshr_miss_latency::.switch_cpus_1.data 119154650000                       # number of ReadReq MSHR miss cycles
system.cpu.dcache.ReadReq_mshr_miss_latency::total 140286203500                       # number of ReadReq MSHR miss cycles
system.cpu.dcache.ReadReq_mshr_miss_rate::.switch_cpus.data     0.063254                       # mshr miss rate for ReadReq accesses
system.cpu.dcache.ReadReq_mshr_miss_rate::.switch_cpus_1.data     0.018771                       # mshr miss rate for ReadReq accesses
system.cpu.dcache.ReadReq_mshr_miss_rate::total     0.010574                       # mshr miss rate for ReadReq accesses
system.cpu.dcache.ReadReq_avg_mshr_miss_latency::.switch_cpus.data 21333.539452                       # average ReadReq mshr miss latency
system.cpu.dcache.ReadReq_avg_mshr_miss_latency::.switch_cpus_1.data 21607.097296                       # average ReadReq mshr miss latency
system.cpu.dcache.ReadReq_avg_mshr_miss_latency::total 21565.442875                       # average ReadReq mshr miss latency
system.cpu.dcache.WriteReq_hits::.cpu.data     52939527                       # number of WriteReq hits
system.cpu.dcache.WriteReq_hits::.switch_cpus.data      1727840                       # number of WriteReq hits
system.cpu.dcache.WriteReq_hits::.switch_cpus_1.data      8482647                       # number of WriteReq hits
system.cpu.dcache.WriteReq_hits::total       63150014                       # number of WriteReq hits
system.cpu.dcache.WriteReq_misses::.cpu.data      6659572                       # number of WriteReq misses
system.cpu.dcache.WriteReq_misses::.switch_cpus.data       348015                       # number of WriteReq misses
system.cpu.dcache.WriteReq_misses::.switch_cpus_1.data      1875910                       # number of WriteReq misses
system.cpu.dcache.WriteReq_misses::total      8883497                       # number of WriteReq misses
system.cpu.dcache.WriteReq_miss_latency::.switch_cpus.data   4260938000                       # number of WriteReq miss cycles
system.cpu.dcache.WriteReq_miss_latency::.switch_cpus_1.data  22699771617                       # number of WriteReq miss cycles
system.cpu.dcache.WriteReq_miss_latency::total  26960709617                       # number of WriteReq miss cycles
system.cpu.dcache.WriteReq_accesses::.cpu.data     59599099                       # number of WriteReq accesses(hits+misses)
system.cpu.dcache.WriteReq_accesses::.switch_cpus.data      2075855                       # number of WriteReq accesses(hits+misses)
system.cpu.dcache.WriteReq_accesses::.switch_cpus_1.data     10358557                       # number of WriteReq accesses(hits+misses)
system.cpu.dcache.WriteReq_accesses::total     72033511                       # number of WriteReq accesses(hits+misses)
system.cpu.dcache.WriteReq_miss_rate::.cpu.data     0.111739                       # miss rate for WriteReq accesses
system.cpu.dcache.WriteReq_miss_rate::.switch_cpus.data     0.167649                       # miss rate for WriteReq accesses
system.cpu.dcache.WriteReq_miss_rate::.switch_cpus_1.data     0.181098                       # miss rate for WriteReq accesses
system.cpu.dcache.WriteReq_miss_rate::total     0.123325                       # miss rate for WriteReq accesses
system.cpu.dcache.WriteReq_avg_miss_latency::.switch_cpus.data 12243.546974                       # average WriteReq miss latency
system.cpu.dcache.WriteReq_avg_miss_latency::.switch_cpus_1.data 12100.672003                       # average WriteReq miss latency
system.cpu.dcache.WriteReq_avg_miss_latency::total  3034.920777                       # average WriteReq miss latency
system.cpu.dcache.WriteReq_mshr_hits::.switch_cpus_1.data           26                       # number of WriteReq MSHR hits
system.cpu.dcache.WriteReq_mshr_hits::total           26                       # number of WriteReq MSHR hits
system.cpu.dcache.WriteReq_mshr_misses::.switch_cpus.data       348015                       # number of WriteReq MSHR misses
system.cpu.dcache.WriteReq_mshr_misses::.switch_cpus_1.data      1875884                       # number of WriteReq MSHR misses
system.cpu.dcache.WriteReq_mshr_misses::total      2223899                       # number of WriteReq MSHR misses
system.cpu.dcache.WriteReq_mshr_miss_latency::.switch_cpus.data   3912923000                       # number of WriteReq MSHR miss cycles
system.cpu.dcache.WriteReq_mshr_miss_latency::.switch_cpus_1.data  20823861617                       # number of WriteReq MSHR miss cycles
system.cpu.dcache.WriteReq_mshr_miss_latency::total  24736784617                       # number of WriteReq MSHR miss cycles
system.cpu.dcache.WriteReq_mshr_miss_rate::.switch_cpus.data     0.167649                       # mshr miss rate for WriteReq accesses
system.cpu.dcache.WriteReq_mshr_miss_rate::.switch_cpus_1.data     0.181095                       # mshr miss rate for WriteReq accesses
system.cpu.dcache.WriteReq_mshr_miss_rate::total     0.030873                       # mshr miss rate for WriteReq accesses
system.cpu.dcache.WriteReq_avg_mshr_miss_latency::.switch_cpus.data 11243.546974                       # average WriteReq mshr miss latency
system.cpu.dcache.WriteReq_avg_mshr_miss_latency::.switch_cpus_1.data 11100.825860                       # average WriteReq mshr miss latency
system.cpu.dcache.WriteReq_avg_mshr_miss_latency::total 11123.160097                       # average WriteReq mshr miss latency
system.cpu.dcache.SoftPFReq_misses::.cpu.data       144428                       # number of SoftPFReq misses
system.cpu.dcache.SoftPFReq_misses::total       144428                       # number of SoftPFReq misses
system.cpu.dcache.SoftPFReq_accesses::.cpu.data       144428                       # number of SoftPFReq accesses(hits+misses)
system.cpu.dcache.SoftPFReq_accesses::total       144428                       # number of SoftPFReq accesses(hits+misses)
system.cpu.dcache.SoftPFReq_miss_rate::.cpu.data            1                       # miss rate for SoftPFReq accesses
system.cpu.dcache.SoftPFReq_miss_rate::total            1                       # miss rate for SoftPFReq accesses
system.cpu.dcache.power_state.pwrStateResidencyTicks::UNDEFINED 1498254386500                       # Cumulative time (in ticks) in various power states
system.cpu.dcache.tags.tagsinuse           511.993444                       # Cycle average of tags in use
system.cpu.dcache.tags.total_refs           679687372                       # Total number of references to valid blocks.
system.cpu.dcache.tags.sampled_refs          23331996                       # Sample count of references to valid blocks.
system.cpu.dcache.tags.avg_refs             29.131128                       # Average number of references to valid blocks.
system.cpu.dcache.tags.warmup_cycle              1500                       # Cycle when the warmup percentage was hit.
system.cpu.dcache.tags.occ_blocks::.cpu.data   362.632993                       # Average occupied blocks per requestor
system.cpu.dcache.tags.occ_blocks::.switch_cpus.data    38.253300                       # Average occupied blocks per requestor
system.cpu.dcache.tags.occ_blocks::.switch_cpus_1.data   111.107150                       # Average occupied blocks per requestor
system.cpu.dcache.tags.occ_percent::.cpu.data     0.708268                       # Average percentage of cache occupancy
system.cpu.dcache.tags.occ_percent::.switch_cpus.data     0.074713                       # Average percentage of cache occupancy
system.cpu.dcache.tags.occ_percent::.switch_cpus_1.data     0.217006                       # Average percentage of cache occupancy
system.cpu.dcache.tags.occ_percent::total     0.999987                       # Average percentage of cache occupancy
system.cpu.dcache.tags.occ_task_id_blocks::1024          512                       # Occupied blocks per task id
system.cpu.dcache.tags.age_task_id_blocks_1024::0           47                       # Occupied blocks per task id
system.cpu.dcache.tags.age_task_id_blocks_1024::1          149                       # Occupied blocks per task id
system.cpu.dcache.tags.age_task_id_blocks_1024::2          179                       # Occupied blocks per task id
system.cpu.dcache.tags.age_task_id_blocks_1024::3          119                       # Occupied blocks per task id
system.cpu.dcache.tags.age_task_id_blocks_1024::4           18                       # Occupied blocks per task id
system.cpu.dcache.tags.occ_task_id_percent::1024            1                       # Percentage of cache occupancy per task id
system.cpu.dcache.tags.tag_accesses        2772880196                       # Number of tag accesses
system.cpu.dcache.tags.data_accesses       2772880196                       # Number of data accesses
system.cpu.dcache.tags.power_state.pwrStateResidencyTicks::UNDEFINED 1498254386500                       # Cumulative time (in ticks) in various power states
system.cpu.power_state.numTransitions               2                       # Number of power state transitions
system.cpu.power_state.pwrStateResidencyTicks::ON 1057830020000                       # Cumulative time (in ticks) in various power states
system.cpu.power_state.pwrStateResidencyTicks::OFF 440424366500                       # Cumulative time (in ticks) in various power states

---------- End Simulation Statistics   ----------
