
---------- Begin Simulation Statistics ----------
final_tick                                 2985692000                       # Number of ticks from beginning of simulation (restored from checkpoints and never reset)
host_inst_rate                                 162437                       # Simulator instruction rate (inst/s)
host_mem_usage                                 876996                       # Number of bytes of host memory used
host_op_rate                                   276868                       # Simulator op (including micro ops) rate (op/s)
host_seconds                                     9.74                       # Real time elapsed on the host
host_tick_rate                              306455424                       # Simulator tick rate (ticks/s)
sim_freq                                 1000000000000                       # Frequency of simulated ticks
sim_insts                                     1582545                       # Number of instructions simulated
sim_ops                                       2697429                       # Number of ops (including micro ops) simulated
sim_seconds                                  0.002986                       # Number of seconds simulated
sim_ticks                                  2985692000                       # Number of ticks simulated
system.cpu.branchPred.BTBCorrect                    0                       # Number of correct BTB predictions (this stat may not work properly.
system.cpu.branchPred.BTBHitPct                   nan                       # BTB Hit Percentage
system.cpu.branchPred.BTBHits                       0                       # Number of BTB hits
system.cpu.branchPred.BTBLookups                    0                       # Number of BTB lookups
system.cpu.branchPred.RASInCorrect                  0                       # Number of incorrect RAS predictions.
system.cpu.branchPred.condIncorrect                58                       # Number of conditional branches incorrect
system.cpu.branchPred.condPredicted                63                       # Number of conditional branches predicted
system.cpu.branchPred.indirectHits                 10                       # Number of indirect target hits.
system.cpu.branchPred.indirectLookups              55                       # Number of indirect predictor lookups.
system.cpu.branchPred.indirectMisses               45                       # Number of indirect misses.
system.cpu.branchPred.lookups                      63                       # Number of BP lookups
system.cpu.branchPred.usedRAS                       0                       # Number of times the RAS was used to get a target.
system.cpu.branchPredindirectMispredicted           50                       # Number of mispredicted indirect branches.
system.cpu.committedInsts                     1582545                       # Number of instructions committed
system.cpu.committedOps                       2697429                       # Number of ops (including micro ops) committed
system.cpu.cpi                               3.773279                       # CPI: cycles per instruction
system.cpu.discardedOps                        328119                       # Number of ops (including micro ops) which were discarded before commit
system.cpu.dtb.rdAccesses                      433697                       # TLB accesses on read requests
system.cpu.dtb.rdMisses                          1479                       # TLB misses on read requests
system.cpu.dtb.wrAccesses                      150371                       # TLB accesses on write requests
system.cpu.dtb.wrMisses                            74                       # TLB misses on write requests
system.cpu.fetch2.amo_instructions                  0                       # Number of memory atomic instructions successfully decoded
system.cpu.fetch2.fp_instructions                   0                       # Number of floating point instructions successfully decoded
system.cpu.fetch2.int_instructions               2014                       # Number of integer instructions successfully decoded
system.cpu.fetch2.load_instructions                 0                       # Number of memory load instructions successfully decoded
system.cpu.fetch2.store_instructions                0                       # Number of memory store instructions successfully decoded
system.cpu.fetch2.vec_instructions                  0                       # Number of SIMD instructions successfully decoded
system.cpu.idleCycles                         1258635                       # Total number of cycles that the object has spent stopped
system.cpu.ipc                               0.265021                       # IPC: instructions per cycle
system.cpu.itb.rdAccesses                           0                       # TLB accesses on read requests
system.cpu.itb.rdMisses                             0                       # TLB misses on read requests
system.cpu.itb.wrAccesses                      494623                       # TLB accesses on write requests
system.cpu.itb.wrMisses                           273                       # TLB misses on write requests
system.cpu.numCycles                          5971384                       # number of cpu cycles simulated
system.cpu.numFetchSuspends                         0                       # Number of times Execute suspended instruction fetching
system.cpu.numWorkItemsCompleted                    0                       # number of work items this cpu completed
system.cpu.numWorkItemsStarted                      0                       # number of work items this cpu started
system.cpu.op_class_0::No_OpClass               16937      0.63%      0.63% # Class of committed instruction
system.cpu.op_class_0::IntAlu                 2104580     78.02%     78.65% # Class of committed instruction
system.cpu.op_class_0::IntMult                   1913      0.07%     78.72% # Class of committed instruction
system.cpu.op_class_0::IntDiv                   24008      0.89%     79.61% # Class of committed instruction
system.cpu.op_class_0::FloatAdd                  6618      0.25%     79.86% # Class of committed instruction
system.cpu.op_class_0::FloatCmp                     0      0.00%     79.86% # Class of committed instruction
system.cpu.op_class_0::FloatCvt                  1232      0.05%     79.90% # Class of committed instruction
system.cpu.op_class_0::FloatMult                 4000      0.15%     80.05% # Class of committed instruction
system.cpu.op_class_0::FloatMultAcc                 0      0.00%     80.05% # Class of committed instruction
system.cpu.op_class_0::FloatDiv                     0      0.00%     80.05% # Class of committed instruction
system.cpu.op_class_0::FloatMisc                    0      0.00%     80.05% # Class of committed instruction
system.cpu.op_class_0::FloatSqrt                    0      0.00%     80.05% # Class of committed instruction
system.cpu.op_class_0::SimdAdd                     16      0.00%     80.05% # Class of committed instruction
system.cpu.op_class_0::SimdAddAcc                   0      0.00%     80.05% # Class of committed instruction
system.cpu.op_class_0::SimdAlu                   4162      0.15%     80.20% # Class of committed instruction
system.cpu.op_class_0::SimdCmp                      0      0.00%     80.20% # Class of committed instruction
system.cpu.op_class_0::SimdCvt                    164      0.01%     80.21% # Class of committed instruction
system.cpu.op_class_0::SimdMisc                  4155      0.15%     80.36% # Class of committed instruction
system.cpu.op_class_0::SimdMult                     0      0.00%     80.36% # Class of committed instruction
system.cpu.op_class_0::SimdMultAcc                  0      0.00%     80.36% # Class of committed instruction
system.cpu.op_class_0::SimdShift                   24      0.00%     80.37% # Class of committed instruction
system.cpu.op_class_0::SimdShiftAcc                 0      0.00%     80.37% # Class of committed instruction
system.cpu.op_class_0::SimdDiv                      0      0.00%     80.37% # Class of committed instruction
system.cpu.op_class_0::SimdSqrt                     0      0.00%     80.37% # Class of committed instruction
system.cpu.op_class_0::SimdFloatAdd              6000      0.22%     80.59% # Class of committed instruction
system.cpu.op_class_0::SimdFloatAlu                 0      0.00%     80.59% # Class of committed instruction
system.cpu.op_class_0::SimdFloatCmp                 0      0.00%     80.59% # Class of committed instruction
system.cpu.op_class_0::SimdFloatCvt              4000      0.15%     80.74% # Class of committed instruction
system.cpu.op_class_0::SimdFloatDiv              2000      0.07%     80.81% # Class of committed instruction
system.cpu.op_class_0::SimdFloatMisc                0      0.00%     80.81% # Class of committed instruction
system.cpu.op_class_0::SimdFloatMult             4000      0.15%     80.96% # Class of committed instruction
system.cpu.op_class_0::SimdFloatMultAcc             0      0.00%     80.96% # Class of committed instruction
system.cpu.op_class_0::SimdFloatSqrt                0      0.00%     80.96% # Class of committed instruction
system.cpu.op_class_0::SimdReduceAdd                0      0.00%     80.96% # Class of committed instruction
system.cpu.op_class_0::SimdReduceAlu                0      0.00%     80.96% # Class of committed instruction
system.cpu.op_class_0::SimdReduceCmp                0      0.00%     80.96% # Class of committed instruction
system.cpu.op_class_0::SimdFloatReduceAdd            0      0.00%     80.96% # Class of committed instruction
system.cpu.op_class_0::SimdFloatReduceCmp            0      0.00%     80.96% # Class of committed instruction
system.cpu.op_class_0::SimdAes                      0      0.00%     80.96% # Class of committed instruction
system.cpu.op_class_0::SimdAesMix                   0      0.00%     80.96% # Class of committed instruction
system.cpu.op_class_0::SimdSha1Hash                 0      0.00%     80.96% # Class of committed instruction
system.cpu.op_class_0::SimdSha1Hash2                0      0.00%     80.96% # Class of committed instruction
system.cpu.op_class_0::SimdSha256Hash               0      0.00%     80.96% # Class of committed instruction
system.cpu.op_class_0::SimdSha256Hash2              0      0.00%     80.96% # Class of committed instruction
system.cpu.op_class_0::SimdShaSigma2                0      0.00%     80.96% # Class of committed instruction
system.cpu.op_class_0::SimdShaSigma3                0      0.00%     80.96% # Class of committed instruction
system.cpu.op_class_0::SimdPredAlu                  0      0.00%     80.96% # Class of committed instruction
system.cpu.op_class_0::MemRead                 352326     13.06%     94.02% # Class of committed instruction
system.cpu.op_class_0::MemWrite                132201      4.90%     98.92% # Class of committed instruction
system.cpu.op_class_0::FloatMemRead             16628      0.62%     99.54% # Class of committed instruction
system.cpu.op_class_0::FloatMemWrite            12465      0.46%    100.00% # Class of committed instruction
system.cpu.op_class_0::IprAccess                    0      0.00%    100.00% # Class of committed instruction
system.cpu.op_class_0::InstPrefetch                 0      0.00%    100.00% # Class of committed instruction
system.cpu.op_class_0::total                  2697429                       # Class of committed instruction
system.cpu.tickCycles                         4712749                       # Number of cycles that the object actually ticked
system.cpu.workload.numSyscalls                    58                       # Number of system calls
system.membus.snoop_filter.hit_multi_requests            0                       # Number of requests hitting in the snoop filter with multiple (>1) holders of the requested data.
system.membus.snoop_filter.hit_multi_snoops            0                       # Number of snoops hitting in the snoop filter with multiple (>1) holders of the requested data.
system.membus.snoop_filter.hit_single_requests            0                       # Number of requests hitting in the snoop filter with a single holder of the requested data.
system.membus.snoop_filter.hit_single_snoops            0                       # Number of snoops hitting in the snoop filter with a single holder of the requested data.
system.membus.snoop_filter.tot_requests          9147                       # Total number of requests made to the snoop filter.
system.membus.snoop_filter.tot_snoops               0                       # Total number of snoops made to the snoop filter.
system.tol2bus.snoop_filter.hit_multi_requests            7                       # Number of requests hitting in the snoop filter with multiple (>1) holders of the requested data.
system.tol2bus.snoop_filter.hit_multi_snoops            0                       # Number of snoops hitting in the snoop filter with multiple (>1) holders of the requested data.
system.tol2bus.snoop_filter.hit_single_requests        11612                       # Number of requests hitting in the snoop filter with a single holder of the requested data.
system.tol2bus.snoop_filter.hit_single_snoops            0                       # Number of snoops hitting in the snoop filter with a single holder of the requested data.
system.tol2bus.snoop_filter.tot_requests        24505                       # Total number of requests made to the snoop filter.
system.tol2bus.snoop_filter.tot_snoops              0                       # Total number of snoops made to the snoop filter.
system.membus.trans_dist::ReadResp               7639                       # Transaction distribution
system.membus.trans_dist::ReadExReq              1508                       # Transaction distribution
system.membus.trans_dist::ReadExResp             1508                       # Transaction distribution
system.membus.trans_dist::ReadSharedReq          7639                       # Transaction distribution
system.membus.pkt_count_system.l2.mem_side::system.mem_ctrls.port        18294                       # Packet count per connected master and slave (bytes)
system.membus.pkt_count_system.l2.mem_side::total        18294                       # Packet count per connected master and slave (bytes)
system.membus.pkt_count::total                  18294                       # Packet count per connected master and slave (bytes)
system.membus.pkt_size_system.l2.mem_side::system.mem_ctrls.port       585408                       # Cumulative packet size per connected master and slave (bytes)
system.membus.pkt_size_system.l2.mem_side::total       585408                       # Cumulative packet size per connected master and slave (bytes)
system.membus.pkt_size::total                  585408                       # Cumulative packet size per connected master and slave (bytes)
system.membus.snoops                                0                       # Total snoops (count)
system.membus.snoopTraffic                          0                       # Total snoop traffic (bytes)
system.membus.snoop_fanout::samples              9147                       # Request fanout histogram
system.membus.snoop_fanout::mean                    0                       # Request fanout histogram
system.membus.snoop_fanout::stdev                   0                       # Request fanout histogram
system.membus.snoop_fanout::underflows              0      0.00%      0.00% # Request fanout histogram
system.membus.snoop_fanout::0                    9147    100.00%    100.00% # Request fanout histogram
system.membus.snoop_fanout::1                       0      0.00%    100.00% # Request fanout histogram
system.membus.snoop_fanout::overflows               0      0.00%    100.00% # Request fanout histogram
system.membus.snoop_fanout::min_value               0                       # Request fanout histogram
system.membus.snoop_fanout::max_value               0                       # Request fanout histogram
system.membus.snoop_fanout::total                9147                       # Request fanout histogram
system.membus.reqLayer2.occupancy            11139500                       # Layer occupancy (ticks)
system.membus.reqLayer2.utilization               0.4                       # Layer utilization (%)
system.membus.respLayer1.occupancy           48878750                       # Layer occupancy (ticks)
system.membus.respLayer1.utilization              1.6                       # Layer utilization (%)
system.membus.power_state.pwrStateResidencyTicks::UNDEFINED   2985692000                       # Cumulative time (in ticks) in various power states
system.tol2bus.trans_dist::ReadResp             11032                       # Transaction distribution
system.tol2bus.trans_dist::WritebackDirty         2218                       # Transaction distribution
system.tol2bus.trans_dist::WritebackClean         2112                       # Transaction distribution
system.tol2bus.trans_dist::CleanEvict            7282                       # Transaction distribution
system.tol2bus.trans_dist::ReadExReq             1860                       # Transaction distribution
system.tol2bus.trans_dist::ReadExResp            1860                       # Transaction distribution
system.tol2bus.trans_dist::ReadCleanReq          2369                       # Transaction distribution
system.tol2bus.trans_dist::ReadSharedReq         8664                       # Transaction distribution
system.tol2bus.pkt_count_system.cpu.icache.mem_side::system.l2.cpu_side         6849                       # Packet count per connected master and slave (bytes)
system.tol2bus.pkt_count_system.cpu.dcache.mem_side::system.l2.cpu_side        30548                       # Packet count per connected master and slave (bytes)
system.tol2bus.pkt_count::total                 37397                       # Packet count per connected master and slave (bytes)
system.tol2bus.pkt_size_system.cpu.icache.mem_side::system.l2.cpu_side       286720                       # Cumulative packet size per connected master and slave (bytes)
system.tol2bus.pkt_size_system.cpu.dcache.mem_side::system.l2.cpu_side       815488                       # Cumulative packet size per connected master and slave (bytes)
system.tol2bus.pkt_size::total                1102208                       # Cumulative packet size per connected master and slave (bytes)
system.tol2bus.snoops                               0                       # Total snoops (count)
system.tol2bus.snoopTraffic                         0                       # Total snoop traffic (bytes)
system.tol2bus.snoop_fanout::samples            12893                       # Request fanout histogram
system.tol2bus.snoop_fanout::mean            0.000543                       # Request fanout histogram
system.tol2bus.snoop_fanout::stdev           0.023295                       # Request fanout histogram
system.tol2bus.snoop_fanout::underflows             0      0.00%      0.00% # Request fanout histogram
system.tol2bus.snoop_fanout::0                  12886     99.95%     99.95% # Request fanout histogram
system.tol2bus.snoop_fanout::1                      7      0.05%    100.00% # Request fanout histogram
system.tol2bus.snoop_fanout::2                      0      0.00%    100.00% # Request fanout histogram
system.tol2bus.snoop_fanout::3                      0      0.00%    100.00% # Request fanout histogram
system.tol2bus.snoop_fanout::4                      0      0.00%    100.00% # Request fanout histogram
system.tol2bus.snoop_fanout::overflows              0      0.00%    100.00% # Request fanout histogram
system.tol2bus.snoop_fanout::min_value              0                       # Request fanout histogram
system.tol2bus.snoop_fanout::max_value              1                       # Request fanout histogram
system.tol2bus.snoop_fanout::total              12893                       # Request fanout histogram
system.tol2bus.reqLayer0.occupancy           16582500                       # Layer occupancy (ticks)
system.tol2bus.reqLayer0.utilization              0.6                       # Layer utilization (%)
system.tol2bus.respLayer1.occupancy          15786000                       # Layer occupancy (ticks)
system.tol2bus.respLayer1.utilization             0.5                       # Layer utilization (%)
system.tol2bus.respLayer0.occupancy           3552499                       # Layer occupancy (ticks)
system.tol2bus.respLayer0.utilization             0.1                       # Layer utilization (%)
system.tol2bus.power_state.pwrStateResidencyTicks::UNDEFINED   2985692000                       # Cumulative time (in ticks) in various power states
system.voltage_domain.voltage                       1                       # Voltage in Volts
system.clk_domain.clock                          1000                       # Clock period in ticks
system.l2.demand_hits::.cpu.inst                  779                       # number of demand (read+write) hits
system.l2.demand_hits::.cpu.data                 2967                       # number of demand (read+write) hits
system.l2.demand_hits::total                     3746                       # number of demand (read+write) hits
system.l2.overall_hits::.cpu.inst                 779                       # number of overall hits
system.l2.overall_hits::.cpu.data                2967                       # number of overall hits
system.l2.overall_hits::total                    3746                       # number of overall hits
system.l2.demand_misses::.cpu.inst               1590                       # number of demand (read+write) misses
system.l2.demand_misses::.cpu.data               7557                       # number of demand (read+write) misses
system.l2.demand_misses::total                   9147                       # number of demand (read+write) misses
system.l2.overall_misses::.cpu.inst              1590                       # number of overall misses
system.l2.overall_misses::.cpu.data              7557                       # number of overall misses
system.l2.overall_misses::total                  9147                       # number of overall misses
system.l2.demand_miss_latency::.cpu.inst    120689500                       # number of demand (read+write) miss cycles
system.l2.demand_miss_latency::.cpu.data    602813500                       # number of demand (read+write) miss cycles
system.l2.demand_miss_latency::total        723503000                       # number of demand (read+write) miss cycles
system.l2.overall_miss_latency::.cpu.inst    120689500                       # number of overall miss cycles
system.l2.overall_miss_latency::.cpu.data    602813500                       # number of overall miss cycles
system.l2.overall_miss_latency::total       723503000                       # number of overall miss cycles
system.l2.demand_accesses::.cpu.inst             2369                       # number of demand (read+write) accesses
system.l2.demand_accesses::.cpu.data            10524                       # number of demand (read+write) accesses
system.l2.demand_accesses::total                12893                       # number of demand (read+write) accesses
system.l2.overall_accesses::.cpu.inst            2369                       # number of overall (read+write) accesses
system.l2.overall_accesses::.cpu.data           10524                       # number of overall (read+write) accesses
system.l2.overall_accesses::total               12893                       # number of overall (read+write) accesses
system.l2.demand_miss_rate::.cpu.inst        0.671169                       # miss rate for demand accesses
system.l2.demand_miss_rate::.cpu.data        0.718073                       # miss rate for demand accesses
system.l2.demand_miss_rate::total            0.709455                       # miss rate for demand accesses
system.l2.overall_miss_rate::.cpu.inst       0.671169                       # miss rate for overall accesses
system.l2.overall_miss_rate::.cpu.data       0.718073                       # miss rate for overall accesses
system.l2.overall_miss_rate::total           0.709455                       # miss rate for overall accesses
system.l2.demand_avg_miss_latency::.cpu.inst 75905.345912                       # average overall miss latency
system.l2.demand_avg_miss_latency::.cpu.data 79768.889771                       # average overall miss latency
system.l2.demand_avg_miss_latency::total 79097.299661                       # average overall miss latency
system.l2.overall_avg_miss_latency::.cpu.inst 75905.345912                       # average overall miss latency
system.l2.overall_avg_miss_latency::.cpu.data 79768.889771                       # average overall miss latency
system.l2.overall_avg_miss_latency::total 79097.299661                       # average overall miss latency
system.l2.blocked_cycles::no_mshrs                  0                       # number of cycles access was blocked
system.l2.blocked_cycles::no_targets                0                       # number of cycles access was blocked
system.l2.blocked::no_mshrs                         0                       # number of cycles access was blocked
system.l2.blocked::no_targets                       0                       # number of cycles access was blocked
system.l2.avg_blocked_cycles::no_mshrs            nan                       # average number of cycles each access was blocked
system.l2.avg_blocked_cycles::no_targets          nan                       # average number of cycles each access was blocked
system.l2.demand_mshr_misses::.cpu.inst          1590                       # number of demand (read+write) MSHR misses
system.l2.demand_mshr_misses::.cpu.data          7557                       # number of demand (read+write) MSHR misses
system.l2.demand_mshr_misses::total              9147                       # number of demand (read+write) MSHR misses
system.l2.overall_mshr_misses::.cpu.inst         1590                       # number of overall MSHR misses
system.l2.overall_mshr_misses::.cpu.data         7557                       # number of overall MSHR misses
system.l2.overall_mshr_misses::total             9147                       # number of overall MSHR misses
system.l2.demand_mshr_miss_latency::.cpu.inst    104789500                       # number of demand (read+write) MSHR miss cycles
system.l2.demand_mshr_miss_latency::.cpu.data    527243500                       # number of demand (read+write) MSHR miss cycles
system.l2.demand_mshr_miss_latency::total    632033000                       # number of demand (read+write) MSHR miss cycles
system.l2.overall_mshr_miss_latency::.cpu.inst    104789500                       # number of overall MSHR miss cycles
system.l2.overall_mshr_miss_latency::.cpu.data    527243500                       # number of overall MSHR miss cycles
system.l2.overall_mshr_miss_latency::total    632033000                       # number of overall MSHR miss cycles
system.l2.demand_mshr_miss_rate::.cpu.inst     0.671169                       # mshr miss rate for demand accesses
system.l2.demand_mshr_miss_rate::.cpu.data     0.718073                       # mshr miss rate for demand accesses
system.l2.demand_mshr_miss_rate::total       0.709455                       # mshr miss rate for demand accesses
system.l2.overall_mshr_miss_rate::.cpu.inst     0.671169                       # mshr miss rate for overall accesses
system.l2.overall_mshr_miss_rate::.cpu.data     0.718073                       # mshr miss rate for overall accesses
system.l2.overall_mshr_miss_rate::total      0.709455                       # mshr miss rate for overall accesses
system.l2.demand_avg_mshr_miss_latency::.cpu.inst 65905.345912                       # average overall mshr miss latency
system.l2.demand_avg_mshr_miss_latency::.cpu.data 69768.889771                       # average overall mshr miss latency
system.l2.demand_avg_mshr_miss_latency::total 69097.299661                       # average overall mshr miss latency
system.l2.overall_avg_mshr_miss_latency::.cpu.inst 65905.345912                       # average overall mshr miss latency
system.l2.overall_avg_mshr_miss_latency::.cpu.data 69768.889771                       # average overall mshr miss latency
system.l2.overall_avg_mshr_miss_latency::total 69097.299661                       # average overall mshr miss latency
system.l2.replacements                              0                       # number of replacements
system.l2.WritebackDirty_hits::.writebacks         2218                       # number of WritebackDirty hits
system.l2.WritebackDirty_hits::total             2218                       # number of WritebackDirty hits
system.l2.WritebackDirty_accesses::.writebacks         2218                       # number of WritebackDirty accesses(hits+misses)
system.l2.WritebackDirty_accesses::total         2218                       # number of WritebackDirty accesses(hits+misses)
system.l2.WritebackClean_hits::.writebacks         2108                       # number of WritebackClean hits
system.l2.WritebackClean_hits::total             2108                       # number of WritebackClean hits
system.l2.WritebackClean_accesses::.writebacks         2108                       # number of WritebackClean accesses(hits+misses)
system.l2.WritebackClean_accesses::total         2108                       # number of WritebackClean accesses(hits+misses)
system.l2.ReadExReq_hits::.cpu.data               352                       # number of ReadExReq hits
system.l2.ReadExReq_hits::total                   352                       # number of ReadExReq hits
system.l2.ReadExReq_misses::.cpu.data            1508                       # number of ReadExReq misses
system.l2.ReadExReq_misses::total                1508                       # number of ReadExReq misses
system.l2.ReadExReq_miss_latency::.cpu.data    118417000                       # number of ReadExReq miss cycles
system.l2.ReadExReq_miss_latency::total     118417000                       # number of ReadExReq miss cycles
system.l2.ReadExReq_accesses::.cpu.data          1860                       # number of ReadExReq accesses(hits+misses)
system.l2.ReadExReq_accesses::total              1860                       # number of ReadExReq accesses(hits+misses)
system.l2.ReadExReq_miss_rate::.cpu.data     0.810753                       # miss rate for ReadExReq accesses
system.l2.ReadExReq_miss_rate::total         0.810753                       # miss rate for ReadExReq accesses
system.l2.ReadExReq_avg_miss_latency::.cpu.data 78525.862069                       # average ReadExReq miss latency
system.l2.ReadExReq_avg_miss_latency::total 78525.862069                       # average ReadExReq miss latency
system.l2.ReadExReq_mshr_misses::.cpu.data         1508                       # number of ReadExReq MSHR misses
system.l2.ReadExReq_mshr_misses::total           1508                       # number of ReadExReq MSHR misses
system.l2.ReadExReq_mshr_miss_latency::.cpu.data    103337000                       # number of ReadExReq MSHR miss cycles
system.l2.ReadExReq_mshr_miss_latency::total    103337000                       # number of ReadExReq MSHR miss cycles
system.l2.ReadExReq_mshr_miss_rate::.cpu.data     0.810753                       # mshr miss rate for ReadExReq accesses
system.l2.ReadExReq_mshr_miss_rate::total     0.810753                       # mshr miss rate for ReadExReq accesses
system.l2.ReadExReq_avg_mshr_miss_latency::.cpu.data 68525.862069                       # average ReadExReq mshr miss latency
system.l2.ReadExReq_avg_mshr_miss_latency::total 68525.862069                       # average ReadExReq mshr miss latency
system.l2.ReadCleanReq_hits::.cpu.inst            779                       # number of ReadCleanReq hits
system.l2.ReadCleanReq_hits::total                779                       # number of ReadCleanReq hits
system.l2.ReadCleanReq_misses::.cpu.inst         1590                       # number of ReadCleanReq misses
system.l2.ReadCleanReq_misses::total             1590                       # number of ReadCleanReq misses
system.l2.ReadCleanReq_miss_latency::.cpu.inst    120689500                       # number of ReadCleanReq miss cycles
system.l2.ReadCleanReq_miss_latency::total    120689500                       # number of ReadCleanReq miss cycles
system.l2.ReadCleanReq_accesses::.cpu.inst         2369                       # number of ReadCleanReq accesses(hits+misses)
system.l2.ReadCleanReq_accesses::total           2369                       # number of ReadCleanReq accesses(hits+misses)
system.l2.ReadCleanReq_miss_rate::.cpu.inst     0.671169                       # miss rate for ReadCleanReq accesses
system.l2.ReadCleanReq_miss_rate::total      0.671169                       # miss rate for ReadCleanReq accesses
system.l2.ReadCleanReq_avg_miss_latency::.cpu.inst 75905.345912                       # average ReadCleanReq miss latency
system.l2.ReadCleanReq_avg_miss_latency::total 75905.345912                       # average ReadCleanReq miss latency
system.l2.ReadCleanReq_mshr_misses::.cpu.inst         1590                       # number of ReadCleanReq MSHR misses
system.l2.ReadCleanReq_mshr_misses::total         1590                       # number of ReadCleanReq MSHR misses
system.l2.ReadCleanReq_mshr_miss_latency::.cpu.inst    104789500                       # number of ReadCleanReq MSHR miss cycles
system.l2.ReadCleanReq_mshr_miss_latency::total    104789500                       # number of ReadCleanReq MSHR miss cycles
system.l2.ReadCleanReq_mshr_miss_rate::.cpu.inst     0.671169                       # mshr miss rate for ReadCleanReq accesses
system.l2.ReadCleanReq_mshr_miss_rate::total     0.671169                       # mshr miss rate for ReadCleanReq accesses
system.l2.ReadCleanReq_avg_mshr_miss_latency::.cpu.inst 65905.345912                       # average ReadCleanReq mshr miss latency
system.l2.ReadCleanReq_avg_mshr_miss_latency::total 65905.345912                       # average ReadCleanReq mshr miss latency
system.l2.ReadSharedReq_hits::.cpu.data          2615                       # number of ReadSharedReq hits
system.l2.ReadSharedReq_hits::total              2615                       # number of ReadSharedReq hits
system.l2.ReadSharedReq_misses::.cpu.data         6049                       # number of ReadSharedReq misses
system.l2.ReadSharedReq_misses::total            6049                       # number of ReadSharedReq misses
system.l2.ReadSharedReq_miss_latency::.cpu.data    484396500                       # number of ReadSharedReq miss cycles
system.l2.ReadSharedReq_miss_latency::total    484396500                       # number of ReadSharedReq miss cycles
system.l2.ReadSharedReq_accesses::.cpu.data         8664                       # number of ReadSharedReq accesses(hits+misses)
system.l2.ReadSharedReq_accesses::total          8664                       # number of ReadSharedReq accesses(hits+misses)
system.l2.ReadSharedReq_miss_rate::.cpu.data     0.698176                       # miss rate for ReadSharedReq accesses
system.l2.ReadSharedReq_miss_rate::total     0.698176                       # miss rate for ReadSharedReq accesses
system.l2.ReadSharedReq_avg_miss_latency::.cpu.data 80078.773351                       # average ReadSharedReq miss latency
system.l2.ReadSharedReq_avg_miss_latency::total 80078.773351                       # average ReadSharedReq miss latency
system.l2.ReadSharedReq_mshr_misses::.cpu.data         6049                       # number of ReadSharedReq MSHR misses
system.l2.ReadSharedReq_mshr_misses::total         6049                       # number of ReadSharedReq MSHR misses
system.l2.ReadSharedReq_mshr_miss_latency::.cpu.data    423906500                       # number of ReadSharedReq MSHR miss cycles
system.l2.ReadSharedReq_mshr_miss_latency::total    423906500                       # number of ReadSharedReq MSHR miss cycles
system.l2.ReadSharedReq_mshr_miss_rate::.cpu.data     0.698176                       # mshr miss rate for ReadSharedReq accesses
system.l2.ReadSharedReq_mshr_miss_rate::total     0.698176                       # mshr miss rate for ReadSharedReq accesses
system.l2.ReadSharedReq_avg_mshr_miss_latency::.cpu.data 70078.773351                       # average ReadSharedReq mshr miss latency
system.l2.ReadSharedReq_avg_mshr_miss_latency::total 70078.773351                       # average ReadSharedReq mshr miss latency
system.l2.power_state.pwrStateResidencyTicks::UNDEFINED   2985692000                       # Cumulative time (in ticks) in various power states
system.l2.tags.tagsinuse                  5381.752090                       # Cycle average of tags in use
system.l2.tags.total_refs                           0                       # Total number of references to valid blocks.
system.l2.tags.sampled_refs                         0                       # Sample count of references to valid blocks.
system.l2.tags.avg_refs                           nan                       # Average number of references to valid blocks.
system.l2.tags.warmup_cycle                     77000                       # Cycle when the warmup percentage was hit.
system.l2.tags.occ_blocks::.cpu.inst       845.670283                       # Average occupied blocks per requestor
system.l2.tags.occ_blocks::.cpu.data      4536.081807                       # Average occupied blocks per requestor
system.l2.tags.occ_percent::.cpu.inst        0.025808                       # Average percentage of cache occupancy
system.l2.tags.occ_percent::.cpu.data        0.138430                       # Average percentage of cache occupancy
system.l2.tags.occ_percent::total            0.164238                       # Average percentage of cache occupancy
system.l2.tags.occ_task_id_blocks::1024          9147                       # Occupied blocks per task id
system.l2.tags.age_task_id_blocks_1024::0            4                       # Occupied blocks per task id
system.l2.tags.age_task_id_blocks_1024::1           41                       # Occupied blocks per task id
system.l2.tags.age_task_id_blocks_1024::2         2901                       # Occupied blocks per task id
system.l2.tags.age_task_id_blocks_1024::3         6201                       # Occupied blocks per task id
system.l2.tags.occ_task_id_percent::1024     0.279144                       # Percentage of cache occupancy per task id
system.l2.tags.tag_accesses                    205131                       # Number of tag accesses
system.l2.tags.data_accesses                   205131                       # Number of data accesses
system.l2.tags.power_state.pwrStateResidencyTicks::UNDEFINED   2985692000                       # Cumulative time (in ticks) in various power states
system.cpu_voltage_domain.voltage                   1                       # Voltage in Volts
system.mem_ctrls.bytes_read::.cpu.inst         101760                       # Number of bytes read from this memory
system.mem_ctrls.bytes_read::.cpu.data         483648                       # Number of bytes read from this memory
system.mem_ctrls.bytes_read::total             585408                       # Number of bytes read from this memory
system.mem_ctrls.bytes_inst_read::.cpu.inst       101760                       # Number of instructions bytes read from this memory
system.mem_ctrls.bytes_inst_read::total        101760                       # Number of instructions bytes read from this memory
system.mem_ctrls.num_reads::.cpu.inst            1590                       # Number of read requests responded to by this memory
system.mem_ctrls.num_reads::.cpu.data            7557                       # Number of read requests responded to by this memory
system.mem_ctrls.num_reads::total                9147                       # Number of read requests responded to by this memory
system.mem_ctrls.bw_read::.cpu.inst          34082551                       # Total read bandwidth from this memory (bytes/s)
system.mem_ctrls.bw_read::.cpu.data         161988578                       # Total read bandwidth from this memory (bytes/s)
system.mem_ctrls.bw_read::total             196071129                       # Total read bandwidth from this memory (bytes/s)
system.mem_ctrls.bw_inst_read::.cpu.inst     34082551                       # Instruction read bandwidth from this memory (bytes/s)
system.mem_ctrls.bw_inst_read::total         34082551                       # Instruction read bandwidth from this memory (bytes/s)
system.mem_ctrls.bw_total::.cpu.inst         34082551                       # Total bandwidth to/from this memory (bytes/s)
system.mem_ctrls.bw_total::.cpu.data        161988578                       # Total bandwidth to/from this memory (bytes/s)
system.mem_ctrls.bw_total::total            196071129                       # Total bandwidth to/from this memory (bytes/s)
system.mem_ctrls.avgPriority_.cpu.inst::samples      1590.00                       # Average QoS priority value for accepted requests
system.mem_ctrls.avgPriority_.cpu.data::samples      7557.00                       # Average QoS priority value for accepted requests
system.mem_ctrls.priorityMinLatency      0.000000018750                       # per QoS priority minimum request to response latency (s)
system.mem_ctrls.priorityMaxLatency      0.000000607500                       # per QoS priority maximum request to response latency (s)
system.mem_ctrls.numReadWriteTurnArounds            0                       # Number of turnarounds from READ to WRITE
system.mem_ctrls.numWriteReadTurnArounds            0                       # Number of turnarounds from WRITE to READ
system.mem_ctrls.numStayReadState               19055                       # Number of times bus staying in READ state
system.mem_ctrls.numStayWriteState                  0                       # Number of times bus staying in WRITE state
system.mem_ctrls.readReqs                        9147                       # Number of read requests accepted
system.mem_ctrls.writeReqs                          0                       # Number of write requests accepted
system.mem_ctrls.readBursts                      9147                       # Number of DRAM read bursts, including those serviced by the write queue
system.mem_ctrls.writeBursts                        0                       # Number of DRAM write bursts, including those merged in the write queue
system.mem_ctrls.servicedByWrQ                      0                       # Number of DRAM read bursts serviced by the write queue
system.mem_ctrls.mergedWrBursts                     0                       # Number of DRAM write bursts merged with an existing one
system.mem_ctrls.neitherReadNorWriteReqs            0                       # Number of requests that are neither read nor write
system.mem_ctrls.perBankRdBursts::0               776                       # Per bank write bursts
system.mem_ctrls.perBankRdBursts::1               595                       # Per bank write bursts
system.mem_ctrls.perBankRdBursts::2               577                       # Per bank write bursts
system.mem_ctrls.perBankRdBursts::3               584                       # Per bank write bursts
system.mem_ctrls.perBankRdBursts::4               710                       # Per bank write bursts
system.mem_ctrls.perBankRdBursts::5               672                       # Per bank write bursts
system.mem_ctrls.perBankRdBursts::6               507                       # Per bank write bursts
system.mem_ctrls.perBankRdBursts::7               340                       # Per bank write bursts
system.mem_ctrls.perBankRdBursts::8               420                       # Per bank write bursts
system.mem_ctrls.perBankRdBursts::9               420                       # Per bank write bursts
system.mem_ctrls.perBankRdBursts::10              540                       # Per bank write bursts
system.mem_ctrls.perBankRdBursts::11              420                       # Per bank write bursts
system.mem_ctrls.perBankRdBursts::12              646                       # Per bank write bursts
system.mem_ctrls.perBankRdBursts::13              595                       # Per bank write bursts
system.mem_ctrls.perBankRdBursts::14              689                       # Per bank write bursts
system.mem_ctrls.perBankRdBursts::15              656                       # Per bank write bursts
system.mem_ctrls.perBankWrBursts::0                 0                       # Per bank write bursts
system.mem_ctrls.perBankWrBursts::1                 0                       # Per bank write bursts
system.mem_ctrls.perBankWrBursts::2                 0                       # Per bank write bursts
system.mem_ctrls.perBankWrBursts::3                 0                       # Per bank write bursts
system.mem_ctrls.perBankWrBursts::4                 0                       # Per bank write bursts
system.mem_ctrls.perBankWrBursts::5                 0                       # Per bank write bursts
system.mem_ctrls.perBankWrBursts::6                 0                       # Per bank write bursts
system.mem_ctrls.perBankWrBursts::7                 0                       # Per bank write bursts
system.mem_ctrls.perBankWrBursts::8                 0                       # Per bank write bursts
system.mem_ctrls.perBankWrBursts::9                 0                       # Per bank write bursts
system.mem_ctrls.perBankWrBursts::10                0                       # Per bank write bursts
system.mem_ctrls.perBankWrBursts::11                0                       # Per bank write bursts
system.mem_ctrls.perBankWrBursts::12                0                       # Per bank write bursts
system.mem_ctrls.perBankWrBursts::13                0                       # Per bank write bursts
system.mem_ctrls.perBankWrBursts::14                0                       # Per bank write bursts
system.mem_ctrls.perBankWrBursts::15                0                       # Per bank write bursts
system.mem_ctrls.avgRdQLen                       1.03                       # Average read queue length when enqueuing
system.mem_ctrls.avgWrQLen                       0.00                       # Average write queue length when enqueuing
system.mem_ctrls.totQLat                     84853750                       # Total ticks spent queuing
system.mem_ctrls.totBusLat                   45735000                       # Total ticks spent in databus transfers
system.mem_ctrls.totMemAccLat               256360000                       # Total ticks spent from burst creation until serviced by the DRAM
system.mem_ctrls.avgQLat                      9276.68                       # Average queueing delay per DRAM burst
system.mem_ctrls.avgBusLat                    5000.00                       # Average bus latency per DRAM burst
system.mem_ctrls.avgMemAccLat                28026.68                       # Average memory access latency per DRAM burst
system.mem_ctrls.numRdRetry                         0                       # Number of times read queue was full causing retry
system.mem_ctrls.numWrRetry                         0                       # Number of times write queue was full causing retry
system.mem_ctrls.readRowHits                     6129                       # Number of row buffer hits during reads
system.mem_ctrls.writeRowHits                       0                       # Number of row buffer hits during writes
system.mem_ctrls.readRowHitRate                 67.01                       # Row buffer hit rate for reads
system.mem_ctrls.writeRowHitRate                  nan                       # Row buffer hit rate for writes
system.mem_ctrls.readPktSize::0                     0                       # Read request sizes (log2)
system.mem_ctrls.readPktSize::1                     0                       # Read request sizes (log2)
system.mem_ctrls.readPktSize::2                     0                       # Read request sizes (log2)
system.mem_ctrls.readPktSize::3                     0                       # Read request sizes (log2)
system.mem_ctrls.readPktSize::4                     0                       # Read request sizes (log2)
system.mem_ctrls.readPktSize::5                     0                       # Read request sizes (log2)
system.mem_ctrls.readPktSize::6                  9147                       # Read request sizes (log2)
system.mem_ctrls.writePktSize::0                    0                       # Write request sizes (log2)
system.mem_ctrls.writePktSize::1                    0                       # Write request sizes (log2)
system.mem_ctrls.writePktSize::2                    0                       # Write request sizes (log2)
system.mem_ctrls.writePktSize::3                    0                       # Write request sizes (log2)
system.mem_ctrls.writePktSize::4                    0                       # Write request sizes (log2)
system.mem_ctrls.writePktSize::5                    0                       # Write request sizes (log2)
system.mem_ctrls.writePktSize::6                    0                       # Write request sizes (log2)
system.mem_ctrls.rdQLenPdf::0                    8621                       # What read queue length does an incoming req see
system.mem_ctrls.rdQLenPdf::1                     514                       # What read queue length does an incoming req see
system.mem_ctrls.rdQLenPdf::2                      12                       # What read queue length does an incoming req see
system.mem_ctrls.rdQLenPdf::3                       0                       # What read queue length does an incoming req see
system.mem_ctrls.rdQLenPdf::4                       0                       # What read queue length does an incoming req see
system.mem_ctrls.rdQLenPdf::5                       0                       # What read queue length does an incoming req see
system.mem_ctrls.rdQLenPdf::6                       0                       # What read queue length does an incoming req see
system.mem_ctrls.rdQLenPdf::7                       0                       # What read queue length does an incoming req see
system.mem_ctrls.rdQLenPdf::8                       0                       # What read queue length does an incoming req see
system.mem_ctrls.rdQLenPdf::9                       0                       # What read queue length does an incoming req see
system.mem_ctrls.rdQLenPdf::10                      0                       # What read queue length does an incoming req see
system.mem_ctrls.rdQLenPdf::11                      0                       # What read queue length does an incoming req see
system.mem_ctrls.rdQLenPdf::12                      0                       # What read queue length does an incoming req see
system.mem_ctrls.rdQLenPdf::13                      0                       # What read queue length does an incoming req see
system.mem_ctrls.rdQLenPdf::14                      0                       # What read queue length does an incoming req see
system.mem_ctrls.rdQLenPdf::15                      0                       # What read queue length does an incoming req see
system.mem_ctrls.rdQLenPdf::16                      0                       # What read queue length does an incoming req see
system.mem_ctrls.rdQLenPdf::17                      0                       # What read queue length does an incoming req see
system.mem_ctrls.rdQLenPdf::18                      0                       # What read queue length does an incoming req see
system.mem_ctrls.rdQLenPdf::19                      0                       # What read queue length does an incoming req see
system.mem_ctrls.rdQLenPdf::20                      0                       # What read queue length does an incoming req see
system.mem_ctrls.rdQLenPdf::21                      0                       # What read queue length does an incoming req see
system.mem_ctrls.rdQLenPdf::22                      0                       # What read queue length does an incoming req see
system.mem_ctrls.rdQLenPdf::23                      0                       # What read queue length does an incoming req see
system.mem_ctrls.rdQLenPdf::24                      0                       # What read queue length does an incoming req see
system.mem_ctrls.rdQLenPdf::25                      0                       # What read queue length does an incoming req see
system.mem_ctrls.rdQLenPdf::26                      0                       # What read queue length does an incoming req see
system.mem_ctrls.rdQLenPdf::27                      0                       # What read queue length does an incoming req see
system.mem_ctrls.rdQLenPdf::28                      0                       # What read queue length does an incoming req see
system.mem_ctrls.rdQLenPdf::29                      0                       # What read queue length does an incoming req see
system.mem_ctrls.rdQLenPdf::30                      0                       # What read queue length does an incoming req see
system.mem_ctrls.rdQLenPdf::31                      0                       # What read queue length does an incoming req see
system.mem_ctrls.wrQLenPdf::0                       0                       # What write queue length does an incoming req see
system.mem_ctrls.wrQLenPdf::1                       0                       # What write queue length does an incoming req see
system.mem_ctrls.wrQLenPdf::2                       0                       # What write queue length does an incoming req see
system.mem_ctrls.wrQLenPdf::3                       0                       # What write queue length does an incoming req see
system.mem_ctrls.wrQLenPdf::4                       0                       # What write queue length does an incoming req see
system.mem_ctrls.wrQLenPdf::5                       0                       # What write queue length does an incoming req see
system.mem_ctrls.wrQLenPdf::6                       0                       # What write queue length does an incoming req see
system.mem_ctrls.wrQLenPdf::7                       0                       # What write queue length does an incoming req see
system.mem_ctrls.wrQLenPdf::8                       0                       # What write queue length does an incoming req see
system.mem_ctrls.wrQLenPdf::9                       0                       # What write queue length does an incoming req see
system.mem_ctrls.wrQLenPdf::10                      0                       # What write queue length does an incoming req see
system.mem_ctrls.wrQLenPdf::11                      0                       # What write queue length does an incoming req see
system.mem_ctrls.wrQLenPdf::12                      0                       # What write queue length does an incoming req see
system.mem_ctrls.wrQLenPdf::13                      0                       # What write queue length does an incoming req see
system.mem_ctrls.wrQLenPdf::14                      0                       # What write queue length does an incoming req see
system.mem_ctrls.wrQLenPdf::15                      0                       # What write queue length does an incoming req see
system.mem_ctrls.wrQLenPdf::16                      0                       # What write queue length does an incoming req see
system.mem_ctrls.wrQLenPdf::17                      0                       # What write queue length does an incoming req see
system.mem_ctrls.wrQLenPdf::18                      0                       # What write queue length does an incoming req see
system.mem_ctrls.wrQLenPdf::19                      0                       # What write queue length does an incoming req see
system.mem_ctrls.wrQLenPdf::20                      0                       # What write queue length does an incoming req see
system.mem_ctrls.wrQLenPdf::21                      0                       # What write queue length does an incoming req see
system.mem_ctrls.wrQLenPdf::22                      0                       # What write queue length does an incoming req see
system.mem_ctrls.wrQLenPdf::23                      0                       # What write queue length does an incoming req see
system.mem_ctrls.wrQLenPdf::24                      0                       # What write queue length does an incoming req see
system.mem_ctrls.wrQLenPdf::25                      0                       # What write queue length does an incoming req see
system.mem_ctrls.wrQLenPdf::26                      0                       # What write queue length does an incoming req see
system.mem_ctrls.wrQLenPdf::27                      0                       # What write queue length does an incoming req see
system.mem_ctrls.wrQLenPdf::28                      0                       # What write queue length does an incoming req see
system.mem_ctrls.wrQLenPdf::29                      0                       # What write queue length does an incoming req see
system.mem_ctrls.wrQLenPdf::30                      0                       # What write queue length does an incoming req see
system.mem_ctrls.wrQLenPdf::31                      0                       # What write queue length does an incoming req see
system.mem_ctrls.wrQLenPdf::32                      0                       # What write queue length does an incoming req see
system.mem_ctrls.wrQLenPdf::33                      0                       # What write queue length does an incoming req see
system.mem_ctrls.wrQLenPdf::34                      0                       # What write queue length does an incoming req see
system.mem_ctrls.wrQLenPdf::35                      0                       # What write queue length does an incoming req see
system.mem_ctrls.wrQLenPdf::36                      0                       # What write queue length does an incoming req see
system.mem_ctrls.wrQLenPdf::37                      0                       # What write queue length does an incoming req see
system.mem_ctrls.wrQLenPdf::38                      0                       # What write queue length does an incoming req see
system.mem_ctrls.wrQLenPdf::39                      0                       # What write queue length does an incoming req see
system.mem_ctrls.wrQLenPdf::40                      0                       # What write queue length does an incoming req see
system.mem_ctrls.wrQLenPdf::41                      0                       # What write queue length does an incoming req see
system.mem_ctrls.wrQLenPdf::42                      0                       # What write queue length does an incoming req see
system.mem_ctrls.wrQLenPdf::43                      0                       # What write queue length does an incoming req see
system.mem_ctrls.wrQLenPdf::44                      0                       # What write queue length does an incoming req see
system.mem_ctrls.wrQLenPdf::45                      0                       # What write queue length does an incoming req see
system.mem_ctrls.wrQLenPdf::46                      0                       # What write queue length does an incoming req see
system.mem_ctrls.wrQLenPdf::47                      0                       # What write queue length does an incoming req see
system.mem_ctrls.wrQLenPdf::48                      0                       # What write queue length does an incoming req see
system.mem_ctrls.wrQLenPdf::49                      0                       # What write queue length does an incoming req see
system.mem_ctrls.wrQLenPdf::50                      0                       # What write queue length does an incoming req see
system.mem_ctrls.wrQLenPdf::51                      0                       # What write queue length does an incoming req see
system.mem_ctrls.wrQLenPdf::52                      0                       # What write queue length does an incoming req see
system.mem_ctrls.wrQLenPdf::53                      0                       # What write queue length does an incoming req see
system.mem_ctrls.wrQLenPdf::54                      0                       # What write queue length does an incoming req see
system.mem_ctrls.wrQLenPdf::55                      0                       # What write queue length does an incoming req see
system.mem_ctrls.wrQLenPdf::56                      0                       # What write queue length does an incoming req see
system.mem_ctrls.wrQLenPdf::57                      0                       # What write queue length does an incoming req see
system.mem_ctrls.wrQLenPdf::58                      0                       # What write queue length does an incoming req see
system.mem_ctrls.wrQLenPdf::59                      0                       # What write queue length does an incoming req see
system.mem_ctrls.wrQLenPdf::60                      0                       # What write queue length does an incoming req see
system.mem_ctrls.wrQLenPdf::61                      0                       # What write queue length does an incoming req see
system.mem_ctrls.wrQLenPdf::62                      0                       # What write queue length does an incoming req see
system.mem_ctrls.wrQLenPdf::63                      0                       # What write queue length does an incoming req see
system.mem_ctrls.bytesPerActivate::samples         3017                       # Bytes accessed per row activation
system.mem_ctrls.bytesPerActivate::mean    194.015247                       # Bytes accessed per row activation
system.mem_ctrls.bytesPerActivate::gmean   125.282580                       # Bytes accessed per row activation
system.mem_ctrls.bytesPerActivate::stdev   236.825717                       # Bytes accessed per row activation
system.mem_ctrls.bytesPerActivate::0-127         1510     50.05%     50.05% # Bytes accessed per row activation
system.mem_ctrls.bytesPerActivate::128-255          849     28.14%     78.19% # Bytes accessed per row activation
system.mem_ctrls.bytesPerActivate::256-383          265      8.78%     86.97% # Bytes accessed per row activation
system.mem_ctrls.bytesPerActivate::384-511           92      3.05%     90.02% # Bytes accessed per row activation
system.mem_ctrls.bytesPerActivate::512-639           72      2.39%     92.41% # Bytes accessed per row activation
system.mem_ctrls.bytesPerActivate::640-767           44      1.46%     93.87% # Bytes accessed per row activation
system.mem_ctrls.bytesPerActivate::768-895           22      0.73%     94.60% # Bytes accessed per row activation
system.mem_ctrls.bytesPerActivate::896-1023           26      0.86%     95.46% # Bytes accessed per row activation
system.mem_ctrls.bytesPerActivate::1024-1151          137      4.54%    100.00% # Bytes accessed per row activation
system.mem_ctrls.bytesPerActivate::total         3017                       # Bytes accessed per row activation
system.mem_ctrls.bytesReadDRAM                 585408                       # Total number of bytes read from DRAM
system.mem_ctrls.bytesReadWrQ                       0                       # Total number of bytes read from write queue
system.mem_ctrls.bytesWritten                       0                       # Total number of bytes written to DRAM
system.mem_ctrls.bytesReadSys                  585408                       # Total read bytes from the system interface side
system.mem_ctrls.bytesWrittenSys                    0                       # Total written bytes from the system interface side
system.mem_ctrls.avgRdBW                       196.07                       # Average DRAM read bandwidth in MiByte/s
system.mem_ctrls.avgWrBW                         0.00                       # Average achieved write bandwidth in MiByte/s
system.mem_ctrls.avgRdBWSys                    196.07                       # Average system read bandwidth in MiByte/s
system.mem_ctrls.avgWrBWSys                      0.00                       # Average system write bandwidth in MiByte/s
system.mem_ctrls.peakBW                      12800.00                       # Theoretical peak bandwidth in MiByte/s
system.mem_ctrls.busUtil                         1.53                       # Data bus utilization in percentage
system.mem_ctrls.busUtilRead                     1.53                       # Data bus utilization in percentage for reads
system.mem_ctrls.busUtilWrite                    0.00                       # Data bus utilization in percentage for writes
system.mem_ctrls.totGap                    2985597500                       # Total gap between requests
system.mem_ctrls.avgGap                     326401.83                       # Average gap between requests
system.mem_ctrls.masterReadBytes::.cpu.inst       101760                       # Per-master bytes read from memory
system.mem_ctrls.masterReadBytes::.cpu.data       483648                       # Per-master bytes read from memory
system.mem_ctrls.masterReadRate::.cpu.inst 34082551.046792507172                       # Per-master bytes read from memory rate (Bytes/sec)
system.mem_ctrls.masterReadRate::.cpu.data 161988577.522396832705                       # Per-master bytes read from memory rate (Bytes/sec)
system.mem_ctrls.masterReadAccesses::.cpu.inst         1590                       # Per-master read serviced memory accesses
system.mem_ctrls.masterReadAccesses::.cpu.data         7557                       # Per-master read serviced memory accesses
system.mem_ctrls.masterReadTotalLat::.cpu.inst     39712000                       # Per-master read total memory access latency
system.mem_ctrls.masterReadTotalLat::.cpu.data    216648000                       # Per-master read total memory access latency
system.mem_ctrls.masterReadAvgLat::.cpu.inst     24976.10                       # Per-master read average memory access latency
system.mem_ctrls.masterReadAvgLat::.cpu.data     28668.52                       # Per-master read average memory access latency
system.mem_ctrls.pageHitRate                    67.01                       # Row buffer hit rate, read and write combined
system.mem_ctrls.rank1.actEnergy             11338320                       # Energy for activate commands per rank (pJ)
system.mem_ctrls.rank1.preEnergy              6026460                       # Energy for precharge commands per rank (pJ)
system.mem_ctrls.rank1.readEnergy            31316040                       # Energy for read commands per rank (pJ)
system.mem_ctrls.rank1.writeEnergy                  0                       # Energy for write commands per rank (pJ)
system.mem_ctrls.rank1.refreshEnergy     235407120.000000                       # Energy for refresh commands per rank (pJ)
system.mem_ctrls.rank1.actBackEnergy       1050414810                       # Energy for active background per rank (pJ)
system.mem_ctrls.rank1.preBackEnergy        261946080                       # Energy for precharge background per rank (pJ)
system.mem_ctrls.rank1.actPowerDownEnergy            0                       # Energy for active power-down per rank (pJ)
system.mem_ctrls.rank1.prePowerDownEnergy            0                       # Energy for precharge power-down per rank (pJ)
system.mem_ctrls.rank1.selfRefreshEnergy            0                       # Energy for self refresh per rank (pJ)
system.mem_ctrls.rank1.totalEnergy         1596448830                       # Total energy per rank (pJ)
system.mem_ctrls.rank1.averagePower        534.699771                       # Core power per rank (mW)
system.mem_ctrls.rank1.totalIdleTime                0                       # Total Idle time Per DRAM Rank
system.mem_ctrls.rank1.memoryStateTime::IDLE    671264500                       # Time in different power states
system.mem_ctrls.rank1.memoryStateTime::REF     99580000                       # Time in different power states
system.mem_ctrls.rank1.memoryStateTime::SREF            0                       # Time in different power states
system.mem_ctrls.rank1.memoryStateTime::PRE_PDN            0                       # Time in different power states
system.mem_ctrls.rank1.memoryStateTime::ACT   2214847500                       # Time in different power states
system.mem_ctrls.rank1.memoryStateTime::ACT_PDN            0                       # Time in different power states
system.mem_ctrls.rank0.actEnergy             10210200                       # Energy for activate commands per rank (pJ)
system.mem_ctrls.rank0.preEnergy              5423055                       # Energy for precharge commands per rank (pJ)
system.mem_ctrls.rank0.readEnergy            33993540                       # Energy for read commands per rank (pJ)
system.mem_ctrls.rank0.writeEnergy                  0                       # Energy for write commands per rank (pJ)
system.mem_ctrls.rank0.refreshEnergy     235407120.000000                       # Energy for refresh commands per rank (pJ)
system.mem_ctrls.rank0.actBackEnergy       1149777210                       # Energy for active background per rank (pJ)
system.mem_ctrls.rank0.preBackEnergy        178272480                       # Energy for precharge background per rank (pJ)
system.mem_ctrls.rank0.actPowerDownEnergy            0                       # Energy for active power-down per rank (pJ)
system.mem_ctrls.rank0.prePowerDownEnergy            0                       # Energy for precharge power-down per rank (pJ)
system.mem_ctrls.rank0.selfRefreshEnergy            0                       # Energy for self refresh per rank (pJ)
system.mem_ctrls.rank0.totalEnergy         1613083605                       # Total energy per rank (pJ)
system.mem_ctrls.rank0.averagePower        540.271269                       # Core power per rank (mW)
system.mem_ctrls.rank0.totalIdleTime                0                       # Total Idle time Per DRAM Rank
system.mem_ctrls.rank0.memoryStateTime::IDLE    453020250                       # Time in different power states
system.mem_ctrls.rank0.memoryStateTime::REF     99580000                       # Time in different power states
system.mem_ctrls.rank0.memoryStateTime::SREF            0                       # Time in different power states
system.mem_ctrls.rank0.memoryStateTime::PRE_PDN            0                       # Time in different power states
system.mem_ctrls.rank0.memoryStateTime::ACT   2433091750                       # Time in different power states
system.mem_ctrls.rank0.memoryStateTime::ACT_PDN            0                       # Time in different power states
system.mem_ctrls.power_state.pwrStateResidencyTicks::UNDEFINED   2985692000                       # Cumulative time (in ticks) in various power states
system.cpu_clk_domain.clock                       500                       # Clock period in ticks
system.cpu.icache.demand_hits::.cpu.inst       492174                       # number of demand (read+write) hits
system.cpu.icache.demand_hits::total           492174                       # number of demand (read+write) hits
system.cpu.icache.overall_hits::.cpu.inst       492174                       # number of overall hits
system.cpu.icache.overall_hits::total          492174                       # number of overall hits
system.cpu.icache.demand_misses::.cpu.inst         2369                       # number of demand (read+write) misses
system.cpu.icache.demand_misses::total           2369                       # number of demand (read+write) misses
system.cpu.icache.overall_misses::.cpu.inst         2369                       # number of overall misses
system.cpu.icache.overall_misses::total          2369                       # number of overall misses
system.cpu.icache.demand_miss_latency::.cpu.inst    134800000                       # number of demand (read+write) miss cycles
system.cpu.icache.demand_miss_latency::total    134800000                       # number of demand (read+write) miss cycles
system.cpu.icache.overall_miss_latency::.cpu.inst    134800000                       # number of overall miss cycles
system.cpu.icache.overall_miss_latency::total    134800000                       # number of overall miss cycles
system.cpu.icache.demand_accesses::.cpu.inst       494543                       # number of demand (read+write) accesses
system.cpu.icache.demand_accesses::total       494543                       # number of demand (read+write) accesses
system.cpu.icache.overall_accesses::.cpu.inst       494543                       # number of overall (read+write) accesses
system.cpu.icache.overall_accesses::total       494543                       # number of overall (read+write) accesses
system.cpu.icache.demand_miss_rate::.cpu.inst     0.004790                       # miss rate for demand accesses
system.cpu.icache.demand_miss_rate::total     0.004790                       # miss rate for demand accesses
system.cpu.icache.overall_miss_rate::.cpu.inst     0.004790                       # miss rate for overall accesses
system.cpu.icache.overall_miss_rate::total     0.004790                       # miss rate for overall accesses
system.cpu.icache.demand_avg_miss_latency::.cpu.inst 56901.646264                       # average overall miss latency
system.cpu.icache.demand_avg_miss_latency::total 56901.646264                       # average overall miss latency
system.cpu.icache.overall_avg_miss_latency::.cpu.inst 56901.646264                       # average overall miss latency
system.cpu.icache.overall_avg_miss_latency::total 56901.646264                       # average overall miss latency
system.cpu.icache.blocked_cycles::no_mshrs            0                       # number of cycles access was blocked
system.cpu.icache.blocked_cycles::no_targets            0                       # number of cycles access was blocked
system.cpu.icache.blocked::no_mshrs                 0                       # number of cycles access was blocked
system.cpu.icache.blocked::no_targets               0                       # number of cycles access was blocked
system.cpu.icache.avg_blocked_cycles::no_mshrs          nan                       # average number of cycles each access was blocked
system.cpu.icache.avg_blocked_cycles::no_targets          nan                       # average number of cycles each access was blocked
system.cpu.icache.writebacks::.writebacks         2112                       # number of writebacks
system.cpu.icache.writebacks::total              2112                       # number of writebacks
system.cpu.icache.demand_mshr_misses::.cpu.inst         2369                       # number of demand (read+write) MSHR misses
system.cpu.icache.demand_mshr_misses::total         2369                       # number of demand (read+write) MSHR misses
system.cpu.icache.overall_mshr_misses::.cpu.inst         2369                       # number of overall MSHR misses
system.cpu.icache.overall_mshr_misses::total         2369                       # number of overall MSHR misses
system.cpu.icache.demand_mshr_miss_latency::.cpu.inst    132432000                       # number of demand (read+write) MSHR miss cycles
system.cpu.icache.demand_mshr_miss_latency::total    132432000                       # number of demand (read+write) MSHR miss cycles
system.cpu.icache.overall_mshr_miss_latency::.cpu.inst    132432000                       # number of overall MSHR miss cycles
system.cpu.icache.overall_mshr_miss_latency::total    132432000                       # number of overall MSHR miss cycles
system.cpu.icache.demand_mshr_miss_rate::.cpu.inst     0.004790                       # mshr miss rate for demand accesses
system.cpu.icache.demand_mshr_miss_rate::total     0.004790                       # mshr miss rate for demand accesses
system.cpu.icache.overall_mshr_miss_rate::.cpu.inst     0.004790                       # mshr miss rate for overall accesses
system.cpu.icache.overall_mshr_miss_rate::total     0.004790                       # mshr miss rate for overall accesses
system.cpu.icache.demand_avg_mshr_miss_latency::.cpu.inst 55902.068383                       # average overall mshr miss latency
system.cpu.icache.demand_avg_mshr_miss_latency::total 55902.068383                       # average overall mshr miss latency
system.cpu.icache.overall_avg_mshr_miss_latency::.cpu.inst 55902.068383                       # average overall mshr miss latency
system.cpu.icache.overall_avg_mshr_miss_latency::total 55902.068383                       # average overall mshr miss latency
system.cpu.icache.replacements                   2112                       # number of replacements
system.cpu.icache.ReadReq_hits::.cpu.inst       492174                       # number of ReadReq hits
system.cpu.icache.ReadReq_hits::total          492174                       # number of ReadReq hits
system.cpu.icache.ReadReq_misses::.cpu.inst         2369                       # number of ReadReq misses
system.cpu.icache.ReadReq_misses::total          2369                       # number of ReadReq misses
system.cpu.icache.ReadReq_miss_latency::.cpu.inst    134800000                       # number of ReadReq miss cycles
system.cpu.icache.ReadReq_miss_latency::total    134800000                       # number of ReadReq miss cycles
system.cpu.icache.ReadReq_accesses::.cpu.inst       494543                       # number of ReadReq accesses(hits+misses)
system.cpu.icache.ReadReq_accesses::total       494543                       # number of ReadReq accesses(hits+misses)
system.cpu.icache.ReadReq_miss_rate::.cpu.inst     0.004790                       # miss rate for ReadReq accesses
system.cpu.icache.ReadReq_miss_rate::total     0.004790                       # miss rate for ReadReq accesses
system.cpu.icache.ReadReq_avg_miss_latency::.cpu.inst 56901.646264                       # average ReadReq miss latency
system.cpu.icache.ReadReq_avg_miss_latency::total 56901.646264                       # average ReadReq miss latency
system.cpu.icache.ReadReq_mshr_misses::.cpu.inst         2369                       # number of ReadReq MSHR misses
system.cpu.icache.ReadReq_mshr_misses::total         2369                       # number of ReadReq MSHR misses
system.cpu.icache.ReadReq_mshr_miss_latency::.cpu.inst    132432000                       # number of ReadReq MSHR miss cycles
system.cpu.icache.ReadReq_mshr_miss_latency::total    132432000                       # number of ReadReq MSHR miss cycles
system.cpu.icache.ReadReq_mshr_miss_rate::.cpu.inst     0.004790                       # mshr miss rate for ReadReq accesses
system.cpu.icache.ReadReq_mshr_miss_rate::total     0.004790                       # mshr miss rate for ReadReq accesses
system.cpu.icache.ReadReq_avg_mshr_miss_latency::.cpu.inst 55902.068383                       # average ReadReq mshr miss latency
system.cpu.icache.ReadReq_avg_mshr_miss_latency::total 55902.068383                       # average ReadReq mshr miss latency
system.cpu.icache.power_state.pwrStateResidencyTicks::UNDEFINED   2985692000                       # Cumulative time (in ticks) in various power states
system.cpu.icache.tags.tagsinuse           254.100098                       # Cycle average of tags in use
system.cpu.icache.tags.total_refs              319015                       # Total number of references to valid blocks.
system.cpu.icache.tags.sampled_refs              2112                       # Sample count of references to valid blocks.
system.cpu.icache.tags.avg_refs            151.048769                       # Average number of references to valid blocks.
system.cpu.icache.tags.warmup_cycle             87500                       # Cycle when the warmup percentage was hit.
system.cpu.icache.tags.occ_blocks::.cpu.inst   254.100098                       # Average occupied blocks per requestor
[...]
system.cpu.icache.tags.total_refs              189283                       # Total number of references to valid blocks.
system.cpu.icache.tags.sampled_refs              1061                       # Sample count of references to valid blocks.
system.cpu.icache.tags.avg_refs            178.400566                       # Average number of references to valid blocks.
system.cpu.icache.tags.warmup_cycle                 0                       # Cycle when the warmup percentage was hit.
system.cpu.icache.tags.occ_blocks::.cpu.inst          256                       # Average occupied blocks per requestor
system.cpu.icache.tags.occ_percent::.cpu.inst            1                       # Average percentage of cache occupancy
system.cpu.icache.tags.occ_percent::total            1                       # Average percentage of cache occupancy
system.cpu.icache.tags.occ_task_id_blocks::1024          256                       # Occupied blocks per task id
system.cpu.icache.tags.age_task_id_blocks_1024::0           83                       # Occupied blocks per task id
system.cpu.icache.tags.age_task_id_blocks_1024::1          167                       # Occupied blocks per task id
system.cpu.icache.tags.age_task_id_blocks_1024::2            5                       # Occupied blocks per task id
system.cpu.icache.tags.age_task_id_blocks_1024::3            1                       # Occupied blocks per task id
system.cpu.icache.tags.occ_task_id_percent::1024            1                       # Percentage of cache occupancy per task id
system.cpu.icache.tags.tag_accesses             20331                       # Number of tag accesses
system.cpu.icache.tags.data_accesses            20331                       # Number of data accesses
system.cpu.icache.tags.power_state.pwrStateResidencyTicks::UNDEFINED     94966500                       # Cumulative time (in ticks) in various power states
system.cpu.dtb.walker.power_state.pwrStateResidencyTicks::UNDEFINED     94966500                       # Cumulative time (in ticks) in various power states
system.cpu.interrupts.clk_domain.clock           8000                       # Clock period in ticks
system.cpu.itb_walker_cache.blocked_cycles::no_mshrs            0                       # number of cycles access was blocked
system.cpu.itb_walker_cache.blocked_cycles::no_targets            0                       # number of cycles access was blocked
system.cpu.itb_walker_cache.blocked::no_mshrs            0                       # number of cycles access was blocked
system.cpu.itb_walker_cache.blocked::no_targets            0                       # number of cycles access was blocked
system.cpu.itb_walker_cache.avg_blocked_cycles::no_mshrs          nan                       # average number of cycles each access was blocked
system.cpu.itb_walker_cache.avg_blocked_cycles::no_targets          nan                       # average number of cycles each access was blocked
system.cpu.itb_walker_cache.replacements            0                       # number of replacements
system.cpu.itb_walker_cache.power_state.pwrStateResidencyTicks::UNDEFINED     94966500                       # Cumulative time (in ticks) in various power states
system.cpu.itb_walker_cache.tags.tagsinuse            0                       # Cycle average of tags in use
system.cpu.itb_walker_cache.tags.total_refs            0                       # Total number of references to valid blocks.
system.cpu.itb_walker_cache.tags.sampled_refs            0                       # Sample count of references to valid blocks.
system.cpu.itb_walker_cache.tags.avg_refs          nan                       # Average number of references to valid blocks.
system.cpu.itb_walker_cache.tags.warmup_cycle            0                       # Cycle when the warmup percentage was hit.
system.cpu.itb_walker_cache.tags.tag_accesses            0                       # Number of tag accesses
system.cpu.itb_walker_cache.tags.data_accesses            0                       # Number of data accesses
system.cpu.itb_walker_cache.tags.power_state.pwrStateResidencyTicks::UNDEFINED     94966500                       # Cumulative time (in ticks) in various power states
system.cpu.dtb_walker_cache.blocked_cycles::no_mshrs            0                       # number of cycles access was blocked
system.cpu.dtb_walker_cache.blocked_cycles::no_targets            0                       # number of cycles access was blocked
system.cpu.dtb_walker_cache.blocked::no_mshrs            0                       # number of cycles access was blocked
system.cpu.dtb_walker_cache.blocked::no_targets            0                       # number of cycles access was blocked
system.cpu.dtb_walker_cache.avg_blocked_cycles::no_mshrs          nan                       # average number of cycles each access was blocked
system.cpu.dtb_walker_cache.avg_blocked_cycles::no_targets          nan                       # average number of cycles each access was blocked
system.cpu.dtb_walker_cache.replacements            0                       # number of replacements
system.cpu.dtb_walker_cache.power_state.pwrStateResidencyTicks::UNDEFINED     94966500                       # Cumulative time (in ticks) in various power states
system.cpu.dtb_walker_cache.tags.tagsinuse            0                       # Cycle average of tags in use
system.cpu.dtb_walker_cache.tags.total_refs            0                       # Total number of references to valid blocks.
system.cpu.dtb_walker_cache.tags.sampled_refs            0                       # Sample count of references to valid blocks.
system.cpu.dtb_walker_cache.tags.avg_refs          nan                       # Average number of references to valid blocks.
system.cpu.dtb_walker_cache.tags.warmup_cycle            0                       # Cycle when the warmup percentage was hit.
system.cpu.dtb_walker_cache.tags.tag_accesses            0                       # Number of tag accesses
system.cpu.dtb_walker_cache.tags.data_accesses            0                       # Number of data accesses
system.cpu.dtb_walker_cache.tags.power_state.pwrStateResidencyTicks::UNDEFINED     94966500                       # Cumulative time (in ticks) in various power states
system.cpu.dcache.demand_hits::.cpu.data        13757                       # number of demand (read+write) hits
system.cpu.dcache.demand_hits::total            13757                       # number of demand (read+write) hits
system.cpu.dcache.overall_hits::.cpu.data        13757                       # number of overall hits
system.cpu.dcache.overall_hits::total           13757                       # number of overall hits
system.cpu.dcache.demand_misses::.cpu.data          438                       # number of demand (read+write) misses
system.cpu.dcache.demand_misses::total            438                       # number of demand (read+write) misses
system.cpu.dcache.overall_misses::.cpu.data          438                       # number of overall misses
system.cpu.dcache.overall_misses::total           438                       # number of overall misses
system.cpu.dcache.demand_miss_latency::.cpu.data     11215500                       # number of demand (read+write) miss cycles
system.cpu.dcache.demand_miss_latency::total     11215500                       # number of demand (read+write) miss cycles
system.cpu.dcache.overall_miss_latency::.cpu.data     11215500                       # number of overall miss cycles
system.cpu.dcache.overall_miss_latency::total     11215500                       # number of overall miss cycles
system.cpu.dcache.demand_accesses::.cpu.data        14195                       # number of demand (read+write) accesses
system.cpu.dcache.demand_accesses::total        14195                       # number of demand (read+write) accesses
system.cpu.dcache.overall_accesses::.cpu.data        14195                       # number of overall (read+write) accesses
system.cpu.dcache.overall_accesses::total        14195                       # number of overall (read+write) accesses
system.cpu.dcache.demand_miss_rate::.cpu.data     0.030856                       # miss rate for demand accesses
system.cpu.dcache.demand_miss_rate::total     0.030856                       # miss rate for demand accesses
system.cpu.dcache.overall_miss_rate::.cpu.data     0.030856                       # miss rate for overall accesses
system.cpu.dcache.overall_miss_rate::total     0.030856                       # miss rate for overall accesses
system.cpu.dcache.demand_avg_miss_latency::.cpu.data 25606.164384                       # average overall miss latency
system.cpu.dcache.demand_avg_miss_latency::total 25606.164384                       # average overall miss latency
system.cpu.dcache.overall_avg_miss_latency::.cpu.data 25606.164384                       # average overall miss latency
system.cpu.dcache.overall_avg_miss_latency::total 25606.164384                       # average overall miss latency
system.cpu.dcache.blocked_cycles::no_mshrs            0                       # number of cycles access was blocked
system.cpu.dcache.blocked_cycles::no_targets            0                       # number of cycles access was blocked
system.cpu.dcache.blocked::no_mshrs                 0                       # number of cycles access was blocked
system.cpu.dcache.blocked::no_targets               0                       # number of cycles access was blocked
system.cpu.dcache.avg_blocked_cycles::no_mshrs          nan                       # average number of cycles each access was blocked
system.cpu.dcache.avg_blocked_cycles::no_targets          nan                       # average number of cycles each access was blocked
system.cpu.dcache.writebacks::.writebacks          176                       # number of writebacks
system.cpu.dcache.writebacks::total               176                       # number of writebacks
system.cpu.dcache.demand_mshr_hits::.cpu.data           22                       # number of demand (read+write) MSHR hits
system.cpu.dcache.demand_mshr_hits::total           22                       # number of demand (read+write) MSHR hits
system.cpu.dcache.overall_mshr_hits::.cpu.data           22                       # number of overall MSHR hits
system.cpu.dcache.overall_mshr_hits::total           22                       # number of overall MSHR hits
system.cpu.dcache.demand_mshr_misses::.cpu.data          416                       # number of demand (read+write) MSHR misses
system.cpu.dcache.demand_mshr_misses::total          416                       # number of demand (read+write) MSHR misses
system.cpu.dcache.overall_mshr_misses::.cpu.data          416                       # number of overall MSHR misses
system.cpu.dcache.overall_mshr_misses::total          416                       # number of overall MSHR misses
system.cpu.dcache.demand_mshr_miss_latency::.cpu.data      9951000                       # number of demand (read+write) MSHR miss cycles
system.cpu.dcache.demand_mshr_miss_latency::total      9951000                       # number of demand (read+write) MSHR miss cycles
system.cpu.dcache.overall_mshr_miss_latency::.cpu.data      9951000                       # number of overall MSHR miss cycles
system.cpu.dcache.overall_mshr_miss_latency::total      9951000                       # number of overall MSHR miss cycles
system.cpu.dcache.demand_mshr_miss_rate::.cpu.data     0.029306                       # mshr miss rate for demand accesses
system.cpu.dcache.demand_mshr_miss_rate::total     0.029306                       # mshr miss rate for demand accesses
system.cpu.dcache.overall_mshr_miss_rate::.cpu.data     0.029306                       # mshr miss rate for overall accesses
system.cpu.dcache.overall_mshr_miss_rate::total     0.029306                       # mshr miss rate for overall accesses
system.cpu.dcache.demand_avg_mshr_miss_latency::.cpu.data 23920.673077                       # average overall mshr miss latency
system.cpu.dcache.demand_avg_mshr_miss_latency::total 23920.673077                       # average overall mshr miss latency
system.cpu.dcache.overall_avg_mshr_miss_latency::.cpu.data 23920.673077                       # average overall mshr miss latency
system.cpu.dcache.overall_avg_mshr_miss_latency::total 23920.673077                       # average overall mshr miss latency
system.cpu.dcache.replacements                    416                       # number of replacements
system.cpu.dcache.ReadReq_hits::.cpu.data         9665                       # number of ReadReq hits
system.cpu.dcache.ReadReq_hits::total            9665                       # number of ReadReq hits
system.cpu.dcache.ReadReq_misses::.cpu.data          372                       # number of ReadReq misses
system.cpu.dcache.ReadReq_misses::total           372                       # number of ReadReq misses
system.cpu.dcache.ReadReq_miss_latency::.cpu.data      8147000                       # number of ReadReq miss cycles
system.cpu.dcache.ReadReq_miss_latency::total      8147000                       # number of ReadReq miss cycles
system.cpu.dcache.ReadReq_accesses::.cpu.data        10037                       # number of ReadReq accesses(hits+misses)
system.cpu.dcache.ReadReq_accesses::total        10037                       # number of ReadReq accesses(hits+misses)
system.cpu.dcache.ReadReq_miss_rate::.cpu.data     0.037063                       # miss rate for ReadReq accesses
system.cpu.dcache.ReadReq_miss_rate::total     0.037063                       # miss rate for ReadReq accesses
system.cpu.dcache.ReadReq_avg_miss_latency::.cpu.data 21900.537634                       # average ReadReq miss latency
system.cpu.dcache.ReadReq_avg_miss_latency::total 21900.537634                       # average ReadReq miss latency
system.cpu.dcache.ReadReq_mshr_misses::.cpu.data          372                       # number of ReadReq MSHR misses
system.cpu.dcache.ReadReq_mshr_misses::total          372                       # number of ReadReq MSHR misses
system.cpu.dcache.ReadReq_mshr_miss_latency::.cpu.data      7775000                       # number of ReadReq MSHR miss cycles
system.cpu.dcache.ReadReq_mshr_miss_latency::total      7775000                       # number of ReadReq MSHR miss cycles
system.cpu.dcache.ReadReq_mshr_miss_rate::.cpu.data     0.037063                       # mshr miss rate for ReadReq accesses
system.cpu.dcache.ReadReq_mshr_miss_rate::total     0.037063                       # mshr miss rate for ReadReq accesses
system.cpu.dcache.ReadReq_avg_mshr_miss_latency::.cpu.data 20900.537634                       # average ReadReq mshr miss latency
system.cpu.dcache.ReadReq_avg_mshr_miss_latency::total 20900.537634                       # average ReadReq mshr miss latency
system.cpu.dcache.WriteReq_hits::.cpu.data         4092                       # number of WriteReq hits
system.cpu.dcache.WriteReq_hits::total           4092                       # number of WriteReq hits
system.cpu.dcache.WriteReq_misses::.cpu.data           66                       # number of WriteReq misses
system.cpu.dcache.WriteReq_misses::total           66                       # number of WriteReq misses
system.cpu.dcache.WriteReq_miss_latency::.cpu.data      3068500                       # number of WriteReq miss cycles
system.cpu.dcache.WriteReq_miss_latency::total      3068500                       # number of WriteReq miss cycles
system.cpu.dcache.WriteReq_accesses::.cpu.data         4158                       # number of WriteReq accesses(hits+misses)
system.cpu.dcache.WriteReq_accesses::total         4158                       # number of WriteReq accesses(hits+misses)
system.cpu.dcache.WriteReq_miss_rate::.cpu.data     0.015873                       # miss rate for WriteReq accesses
system.cpu.dcache.WriteReq_miss_rate::total     0.015873                       # miss rate for WriteReq accesses
system.cpu.dcache.WriteReq_avg_miss_latency::.cpu.data 46492.424242                       # average WriteReq miss latency
system.cpu.dcache.WriteReq_avg_miss_latency::total 46492.424242                       # average WriteReq miss latency
system.cpu.dcache.WriteReq_mshr_hits::.cpu.data           22                       # number of WriteReq MSHR hits
system.cpu.dcache.WriteReq_mshr_hits::total           22                       # number of WriteReq MSHR hits
system.cpu.dcache.WriteReq_mshr_misses::.cpu.data           44                       # number of WriteReq MSHR misses
system.cpu.dcache.WriteReq_mshr_misses::total           44                       # number of WriteReq MSHR misses
system.cpu.dcache.WriteReq_mshr_miss_latency::.cpu.data      2176000                       # number of WriteReq MSHR miss cycles
system.cpu.dcache.WriteReq_mshr_miss_latency::total      2176000                       # number of WriteReq MSHR miss cycles
system.cpu.dcache.WriteReq_mshr_miss_rate::.cpu.data     0.010582                       # mshr miss rate for WriteReq accesses
system.cpu.dcache.WriteReq_mshr_miss_rate::total     0.010582                       # mshr miss rate for WriteReq accesses
system.cpu.dcache.WriteReq_avg_mshr_miss_latency::.cpu.data 49454.545455                       # average WriteReq mshr miss latency
system.cpu.dcache.WriteReq_avg_mshr_miss_latency::total 49454.545455                       # average WriteReq mshr miss latency
system.cpu.dcache.power_state.pwrStateResidencyTicks::UNDEFINED     94966500                       # Cumulative time (in ticks) in various power states
system.cpu.dcache.tags.tagsinuse                 1024                       # Cycle average of tags in use
system.cpu.dcache.tags.total_refs              145484                       # Total number of references to valid blocks.
system.cpu.dcache.tags.sampled_refs              1440                       # Sample count of references to valid blocks.
system.cpu.dcache.tags.avg_refs            101.030556                       # Average number of references to valid blocks.
system.cpu.dcache.tags.warmup_cycle                 0                       # Cycle when the warmup percentage was hit.
system.cpu.dcache.tags.occ_blocks::.cpu.data         1024                       # Average occupied blocks per requestor
system.cpu.dcache.tags.occ_percent::.cpu.data            1                       # Average percentage of cache occupancy
system.cpu.dcache.tags.occ_percent::total            1                       # Average percentage of cache occupancy
system.cpu.dcache.tags.occ_task_id_blocks::1024         1024                       # Occupied blocks per task id
system.cpu.dcache.tags.age_task_id_blocks_1024::0           58                       # Occupied blocks per task id
system.cpu.dcache.tags.age_task_id_blocks_1024::1          293                       # Occupied blocks per task id
system.cpu.dcache.tags.age_task_id_blocks_1024::2          643                       # Occupied blocks per task id
system.cpu.dcache.tags.age_task_id_blocks_1024::3           30                       # Occupied blocks per task id
system.cpu.dcache.tags.occ_task_id_percent::1024            1                       # Percentage of cache occupancy per task id
system.cpu.dcache.tags.tag_accesses             28806                       # Number of tag accesses
system.cpu.dcache.tags.data_accesses            28806                       # Number of data accesses
system.cpu.dcache.tags.power_state.pwrStateResidencyTicks::UNDEFINED     94966500                       # Cumulative time (in ticks) in various power states
system.cpu.power_state.pwrStateResidencyTicks::ON     94966500                       # Cumulative time (in ticks) in various power states
system.cpu.itb.walker.power_state.pwrStateResidencyTicks::UNDEFINED     94966500                       # Cumulative time (in ticks) in various power states

---------- End Simulation Statistics   ----------
