
---------- Begin Simulation Statistics ----------
final_tick                               1368820677500                       # Number of ticks from beginning of simulation (restored from checkpoints and never reset)
host_inst_rate                                 460235                       # Simulator instruction rate (inst/s)
host_mem_usage                                4599440                       # Number of bytes of host memory used
host_op_rate                                   797442                       # Simulator op (including micro ops) rate (op/s)
host_seconds                                  2824.64                       # Real time elapsed on the host
host_tick_rate                               48619284                       # Simulator tick rate (ticks/s)
sim_freq                                 1000000000000                       # Frequency of simulated ticks
sim_insts                                  1300000002                       # Number of instructions simulated
sim_ops                                    2252488669                       # Number of ops (including micro ops) simulated
sim_seconds                                  0.137332                       # Number of seconds simulated
sim_ticks                                137332170250                       # Number of ticks simulated
system.cpu.committedInsts                           0                       # Number of instructions committed
system.cpu.committedOps                             0                       # Number of ops (including micro ops) committed
system.cpu.dtb.rdAccesses                           0                       # TLB accesses on read requests
system.cpu.dtb.rdMisses                             0                       # TLB misses on read requests
system.cpu.dtb.wrAccesses                           0                       # TLB accesses on write requests
system.cpu.dtb.wrMisses                             0                       # TLB misses on write requests
system.cpu.idle_fraction                            0                       # Percentage of idle cycles
system.cpu.itb.rdAccesses                           0                       # TLB accesses on read requests
system.cpu.itb.rdMisses                             0                       # TLB misses on read requests
system.cpu.itb.wrAccesses                           0                       # TLB accesses on write requests
system.cpu.itb.wrMisses                             0                       # TLB misses on write requests
system.cpu.not_idle_fraction                        1                       # Percentage of non-idle cycles
system.cpu.numCycles                                0                       # number of cpu cycles simulated
system.cpu.numWorkItemsCompleted                    0                       # number of work items this cpu completed
system.cpu.numWorkItemsStarted                      0                       # number of work items this cpu started
system.cpu.num_busy_cycles                          0                       # Number of busy cycles
system.cpu.num_conditional_control_insts            0                       # number of instructions that are conditional controls
system.cpu.num_fp_alu_accesses                      0                       # Number of float alu accesses
system.cpu.num_fp_insts                             0                       # number of float instructions
system.cpu.num_fp_register_reads                    0                       # number of times the floating registers were read
system.cpu.num_fp_register_writes                   0                       # number of times the floating registers were written
system.cpu.num_func_calls                           0                       # number of times a function call or return occured
system.cpu.num_idle_cycles                          0                       # Number of idle cycles
system.cpu.num_int_alu_accesses                     0                       # Number of integer alu accesses
system.cpu.num_int_insts                            0                       # number of integer instructions
system.cpu.num_int_register_reads                   0                       # number of times the integer registers were read
system.cpu.num_int_register_writes                  0                       # number of times the integer registers were written
system.cpu.num_load_insts                           0                       # Number of load instructions
system.cpu.num_mem_refs                             0                       # number of memory refs
system.cpu.num_store_insts                          0                       # Number of store instructions
system.cpu.num_vec_alu_accesses                     0                       # Number of vector alu accesses
system.cpu.num_vec_insts                            0                       # number of vector instructions
system.cpu.num_vec_register_reads                   0                       # number of times the vector registers were read
system.cpu.num_vec_register_writes                  0                       # number of times the vector registers were written
system.cpu.op_class::No_OpClass                     0                       # Class of executed instruction
system.cpu.op_class::IntAlu                         0                       # Class of executed instruction
system.cpu.op_class::IntMult                        0                       # Class of executed instruction
system.cpu.op_class::IntDiv                         0                       # Class of executed instruction
system.cpu.op_class::FloatAdd                       0                       # Class of executed instruction
system.cpu.op_class::FloatCmp                       0                       # Class of executed instruction
system.cpu.op_class::FloatCvt                       0                       # Class of executed instruction
system.cpu.op_class::FloatMult                      0                       # Class of executed instruction
system.cpu.op_class::FloatMultAcc                   0                       # Class of executed instruction
system.cpu.op_class::FloatDiv                       0                       # Class of executed instruction
system.cpu.op_class::FloatMisc                      0                       # Class of executed instruction
system.cpu.op_class::FloatSqrt                      0                       # Class of executed instruction
system.cpu.op_class::SimdAdd                        0                       # Class of executed instruction
system.cpu.op_class::SimdAddAcc                     0                       # Class of executed instruction
system.cpu.op_class::SimdAlu                        0                       # Class of executed instruction
system.cpu.op_class::SimdCmp                        0                       # Class of executed instruction
system.cpu.op_class::SimdCvt                        0                       # Class of executed instruction
system.cpu.op_class::SimdMisc                       0                       # Class of executed instruction
system.cpu.op_class::SimdMult                       0                       # Class of executed instruction
system.cpu.op_class::SimdMultAcc                    0                       # Class of executed instruction
system.cpu.op_class::SimdShift                      0                       # Class of executed instruction
system.cpu.op_class::SimdShiftAcc                   0                       # Class of executed instruction
system.cpu.op_class::SimdDiv                        0                       # Class of executed instruction
system.cpu.op_class::SimdSqrt                       0                       # Class of executed instruction
system.cpu.op_class::SimdFloatAdd                   0                       # Class of executed instruction
system.cpu.op_class::SimdFloatAlu                   0                       # Class of executed instruction
system.cpu.op_class::SimdFloatCmp                   0                       # Class of executed instruction
system.cpu.op_class::SimdFloatCvt                   0                       # Class of executed instruction
system.cpu.op_class::SimdFloatDiv                   0                       # Class of executed instruction
system.cpu.op_class::SimdFloatMisc                  0                       # Class of executed instruction
system.cpu.op_class::SimdFloatMult                  0                       # Class of executed instruction
system.cpu.op_class::SimdFloatMultAcc               0                       # Class of executed instruction
system.cpu.op_class::SimdFloatSqrt                  0                       # Class of executed instruction
system.cpu.op_class::SimdReduceAdd                  0                       # Class of executed instruction
system.cpu.op_class::SimdReduceAlu                  0                       # Class of executed instruction
system.cpu.op_class::SimdReduceCmp                  0                       # Class of executed instruction
system.cpu.op_class::SimdFloatReduceAdd             0                       # Class of executed instruction
system.cpu.op_class::SimdFloatReduceCmp             0                       # Class of executed instruction
system.cpu.op_class::SimdAes                        0                       # Class of executed instruction
system.cpu.op_class::SimdAesMix                     0                       # Class of executed instruction
system.cpu.op_class::SimdSha1Hash                   0                       # Class of executed instruction
system.cpu.op_class::SimdSha1Hash2                  0                       # Class of executed instruction
system.cpu.op_class::SimdSha256Hash                 0                       # Class of executed instruction
system.cpu.op_class::SimdSha256Hash2                0                       # Class of executed instruction
system.cpu.op_class::SimdShaSigma2                  0                       # Class of executed instruction
system.cpu.op_class::SimdShaSigma3                  0                       # Class of executed instruction
system.cpu.op_class::SimdPredAlu                    0                       # Class of executed instruction
system.cpu.op_class::MemRead                        0                       # Class of executed instruction
system.cpu.op_class::MemWrite                       0                       # Class of executed instruction
system.cpu.op_class::FloatMemRead                   0                       # Class of executed instruction
system.cpu.op_class::FloatMemWrite                  0                       # Class of executed instruction
system.cpu.op_class::IprAccess                      0                       # Class of executed instruction
system.cpu.op_class::InstPrefetch                   0                       # Class of executed instruction
system.cpu.op_class::total                          0                       # Class of executed instruction
system.cpu.workload.numSyscalls                     0                       # Number of system calls
system.membus.snoop_filter.hit_multi_requests            0                       # Number of requests hitting in the snoop filter with multiple (>1) holders of the requested data.
system.membus.snoop_filter.hit_multi_snoops            0                       # Number of snoops hitting in the snoop filter with multiple (>1) holders of the requested data.
system.membus.snoop_filter.hit_single_requests      1274951                       # Number of requests hitting in the snoop filter with a single holder of the requested data.
system.membus.snoop_filter.hit_single_snoops            0                       # Number of snoops hitting in the snoop filter with a single holder of the requested data.
system.membus.snoop_filter.tot_requests       2548389                       # Total number of requests made to the snoop filter.
system.membus.snoop_filter.tot_snoops               0                       # Total number of snoops made to the snoop filter.
system.switch_cpus.committedInsts                   0                       # Number of instructions committed
system.switch_cpus.committedOps                     0                       # Number of ops (including micro ops) committed
system.switch_cpus.dtb.rdAccesses                   0                       # TLB accesses on read requests
system.switch_cpus.dtb.rdMisses                     0                       # TLB misses on read requests
system.switch_cpus.dtb.wrAccesses                   0                       # TLB accesses on write requests
system.switch_cpus.dtb.wrMisses                     0                       # TLB misses on write requests
system.switch_cpus.idle_fraction                    0                       # Percentage of idle cycles
system.switch_cpus.itb.rdAccesses                   0                       # TLB accesses on read requests
system.switch_cpus.itb.rdMisses                     0                       # TLB misses on read requests
system.switch_cpus.itb.wrAccesses                   0                       # TLB accesses on write requests
system.switch_cpus.itb.wrMisses                     0                       # TLB misses on write requests
system.switch_cpus.not_idle_fraction                1                       # Percentage of non-idle cycles
system.switch_cpus.numCycles                        0                       # number of cpu cycles simulated
system.switch_cpus.numWorkItemsCompleted            0                       # number of work items this cpu completed
system.switch_cpus.numWorkItemsStarted              0                       # number of work items this cpu started
system.switch_cpus.num_busy_cycles                  0                       # Number of busy cycles
system.switch_cpus.num_conditional_control_insts            0                       # number of instructions that are conditional controls
system.switch_cpus.num_fp_alu_accesses              0                       # Number of float alu accesses
system.switch_cpus.num_fp_insts                     0                       # number of float instructions
system.switch_cpus.num_fp_register_reads            0                       # number of times the floating registers were read
system.switch_cpus.num_fp_register_writes            0                       # number of times the floating registers were written
system.switch_cpus.num_func_calls                   0                       # number of times a function call or return occured
system.switch_cpus.num_idle_cycles                  0                       # Number of idle cycles
system.switch_cpus.num_int_alu_accesses             0                       # Number of integer alu accesses
system.switch_cpus.num_int_insts                    0                       # number of integer instructions
system.switch_cpus.num_int_register_reads            0                       # number of times the integer registers were read
system.switch_cpus.num_int_register_writes            0                       # number of times the integer registers were written
system.switch_cpus.num_load_insts                   0                       # Number of load instructions
system.switch_cpus.num_mem_refs                     0                       # number of memory refs
system.switch_cpus.num_store_insts                  0                       # Number of store instructions
system.switch_cpus.num_vec_alu_accesses             0                       # Number of vector alu accesses
system.switch_cpus.num_vec_insts                    0                       # number of vector instructions
system.switch_cpus.num_vec_register_reads            0                       # number of times the vector registers were read
system.switch_cpus.num_vec_register_writes            0                       # number of times the vector registers were written
system.switch_cpus.op_class::No_OpClass             0                       # Class of executed instruction
system.switch_cpus.op_class::IntAlu                 0                       # Class of executed instruction
system.switch_cpus.op_class::IntMult                0                       # Class of executed instruction
system.switch_cpus.op_class::IntDiv                 0                       # Class of executed instruction
system.switch_cpus.op_class::FloatAdd               0                       # Class of executed instruction
system.switch_cpus.op_class::FloatCmp               0                       # Class of executed instruction
system.switch_cpus.op_class::FloatCvt               0                       # Class of executed instruction
system.switch_cpus.op_class::FloatMult              0                       # Class of executed instruction
system.switch_cpus.op_class::FloatMultAcc            0                       # Class of executed instruction
system.switch_cpus.op_class::FloatDiv               0                       # Class of executed instruction
system.switch_cpus.op_class::FloatMisc              0                       # Class of executed instruction
system.switch_cpus.op_class::FloatSqrt              0                       # Class of executed instruction
system.switch_cpus.op_class::SimdAdd                0                       # Class of executed instruction
system.switch_cpus.op_class::SimdAddAcc             0                       # Class of executed instruction
system.switch_cpus.op_class::SimdAlu                0                       # Class of executed instruction
system.switch_cpus.op_class::SimdCmp                0                       # Class of executed instruction
system.switch_cpus.op_class::SimdCvt                0                       # Class of executed instruction
system.switch_cpus.op_class::SimdMisc               0                       # Class of executed instruction
system.switch_cpus.op_class::SimdMult               0                       # Class of executed instruction
system.switch_cpus.op_class::SimdMultAcc            0                       # Class of executed instruction
system.switch_cpus.op_class::SimdShift              0                       # Class of executed instruction
system.switch_cpus.op_class::SimdShiftAcc            0                       # Class of executed instruction
system.switch_cpus.op_class::SimdDiv                0                       # Class of executed instruction
system.switch_cpus.op_class::SimdSqrt               0                       # Class of executed instruction
system.switch_cpus.op_class::SimdFloatAdd            0                       # Class of executed instruction
system.switch_cpus.op_class::SimdFloatAlu            0                       # Class of executed instruction
system.switch_cpus.op_class::SimdFloatCmp            0                       # Class of executed instruction
system.switch_cpus.op_class::SimdFloatCvt            0                       # Class of executed instruction
system.switch_cpus.op_class::SimdFloatDiv            0                       # Class of executed instruction
system.switch_cpus.op_class::SimdFloatMisc            0                       # Class of executed instruction
system.switch_cpus.op_class::SimdFloatMult            0                       # Class of executed instruction
system.switch_cpus.op_class::SimdFloatMultAcc            0                       # Class of executed instruction
system.switch_cpus.op_class::SimdFloatSqrt            0                       # Class of executed instruction
system.switch_cpus.op_class::SimdReduceAdd            0                       # Class of executed instruction
system.switch_cpus.op_class::SimdReduceAlu            0                       # Class of executed instruction
system.switch_cpus.op_class::SimdReduceCmp            0                       # Class of executed instruction
system.switch_cpus.op_class::SimdFloatReduceAdd            0                       # Class of executed instruction
system.switch_cpus.op_class::SimdFloatReduceCmp            0                       # Class of executed instruction
system.switch_cpus.op_class::SimdAes                0                       # Class of executed instruction
system.switch_cpus.op_class::SimdAesMix             0                       # Class of executed instruction
system.switch_cpus.op_class::SimdSha1Hash            0                       # Class of executed instruction
system.switch_cpus.op_class::SimdSha1Hash2            0                       # Class of executed instruction
system.switch_cpus.op_class::SimdSha256Hash            0                       # Class of executed instruction
system.switch_cpus.op_class::SimdSha256Hash2            0                       # Class of executed instruction
system.switch_cpus.op_class::SimdShaSigma2            0                       # Class of executed instruction
system.switch_cpus.op_class::SimdShaSigma3            0                       # Class of executed instruction
system.switch_cpus.op_class::SimdPredAlu            0                       # Class of executed instruction
system.switch_cpus.op_class::MemRead                0                       # Class of executed instruction
system.switch_cpus.op_class::MemWrite               0                       # Class of executed instruction
system.switch_cpus.op_class::FloatMemRead            0                       # Class of executed instruction
system.switch_cpus.op_class::FloatMemWrite            0                       # Class of executed instruction
system.switch_cpus.op_class::IprAccess              0                       # Class of executed instruction
system.switch_cpus.op_class::InstPrefetch            0                       # Class of executed instruction
system.switch_cpus.op_class::total                  0                       # Class of executed instruction
system.switch_cpus_1.branchPred.BTBCorrect            0                       # Number of correct BTB predictions (this stat may not work properly.
system.switch_cpus_1.branchPred.BTBHitPct          nan                       # BTB Hit Percentage
system.switch_cpus_1.branchPred.BTBHits             0                       # Number of BTB hits
system.switch_cpus_1.branchPred.BTBLookups            0                       # Number of BTB lookups
system.switch_cpus_1.branchPred.RASInCorrect            0                       # Number of incorrect RAS predictions.
system.switch_cpus_1.branchPred.condIncorrect         2757                       # Number of conditional branches incorrect
system.switch_cpus_1.branchPred.condPredicted       321806                       # Number of conditional branches predicted
system.switch_cpus_1.branchPred.indirectHits       318024                       # Number of indirect target hits.
system.switch_cpus_1.branchPred.indirectLookups       318359                       # Number of indirect predictor lookups.
system.switch_cpus_1.branchPred.indirectMisses          335                       # Number of indirect misses.
system.switch_cpus_1.branchPred.lookups        321981                       # Number of BP lookups
system.switch_cpus_1.branchPred.usedRAS             0                       # Number of times the RAS was used to get a target.
system.switch_cpus_1.branchPredindirectMispredicted           68                       # Number of mispredicted indirect branches.
system.switch_cpus_1.cc_regfile_reads         1590290                       # number of cc regfile reads
system.switch_cpus_1.cc_regfile_writes        9614348                       # number of cc regfile writes
system.switch_cpus_1.commit.amos                    0                       # Number of atomic instructions committed
system.switch_cpus_1.commit.branchMispredicts         2757                       # The number of times a branch was mispredicted
system.switch_cpus_1.commit.branches           316130                       # Number of branches committed
system.switch_cpus_1.commit.bw_lim_events     29094020                       # number cycles where commit BW limit reached
system.switch_cpus_1.commit.commitSquashedInsts       350141                       # The number of squashed insts skipped by commit
system.switch_cpus_1.commit.committedInsts    250000000                       # Number of instructions committed
system.switch_cpus_1.commit.committedOps    396157623                       # Number of ops (including micro ops) committed
system.switch_cpus_1.commit.committed_per_cycle::samples    274615706                       # Number of insts commited each cycle
system.switch_cpus_1.commit.committed_per_cycle::mean     1.442589                       # Number of insts commited each cycle
system.switch_cpus_1.commit.committed_per_cycle::stdev     2.716838                       # Number of insts commited each cycle
system.switch_cpus_1.commit.committed_per_cycle::underflows            0      0.00%      0.00% # Number of insts commited each cycle
system.switch_cpus_1.commit.committed_per_cycle::0    195882821     71.33%     71.33% # Number of insts commited each cycle
system.switch_cpus_1.commit.committed_per_cycle::1     13625706      4.96%     76.29% # Number of insts commited each cycle
system.switch_cpus_1.commit.committed_per_cycle::2      7632909      2.78%     79.07% # Number of insts commited each cycle
system.switch_cpus_1.commit.committed_per_cycle::3      7030302      2.56%     81.63% # Number of insts commited each cycle
system.switch_cpus_1.commit.committed_per_cycle::4      6564938      2.39%     84.02% # Number of insts commited each cycle
system.switch_cpus_1.commit.committed_per_cycle::5      5925301      2.16%     86.18% # Number of insts commited each cycle
system.switch_cpus_1.commit.committed_per_cycle::6      4481187      1.63%     87.81% # Number of insts commited each cycle
system.switch_cpus_1.commit.committed_per_cycle::7      4378522      1.59%     89.41% # Number of insts commited each cycle
system.switch_cpus_1.commit.committed_per_cycle::8     29094020     10.59%    100.00% # Number of insts commited each cycle
system.switch_cpus_1.commit.committed_per_cycle::overflows            0      0.00%    100.00% # Number of insts commited each cycle
system.switch_cpus_1.commit.committed_per_cycle::min_value            0                       # Number of insts commited each cycle
system.switch_cpus_1.commit.committed_per_cycle::max_value            8                       # Number of insts commited each cycle
system.switch_cpus_1.commit.committed_per_cycle::total    274615706                       # Number of insts commited each cycle
system.switch_cpus_1.commit.fp_insts        362997073                       # Number of committed floating point instructions.
system.switch_cpus_1.commit.function_calls            0                       # Number of function calls committed.
system.switch_cpus_1.commit.int_insts       152683004                       # Number of committed integer instructions.
system.switch_cpus_1.commit.loads           107764676                       # Number of loads committed
system.switch_cpus_1.commit.membars                 0                       # Number of memory barriers committed
system.switch_cpus_1.commit.op_class_0::No_OpClass         1342      0.00%      0.00% # Class of committed instruction
system.switch_cpus_1.commit.op_class_0::IntAlu     85398671     21.56%     21.56% # Class of committed instruction
system.switch_cpus_1.commit.op_class_0::IntMult           77      0.00%     21.56% # Class of committed instruction
system.switch_cpus_1.commit.op_class_0::IntDiv            0      0.00%     21.56% # Class of committed instruction
system.switch_cpus_1.commit.op_class_0::FloatAdd     44959348     11.35%     32.91% # Class of committed instruction
system.switch_cpus_1.commit.op_class_0::FloatCmp            0      0.00%     32.91% # Class of committed instruction
system.switch_cpus_1.commit.op_class_0::FloatCvt            0      0.00%     32.91% # Class of committed instruction
system.switch_cpus_1.commit.op_class_0::FloatMult            0      0.00%     32.91% # Class of committed instruction
system.switch_cpus_1.commit.op_class_0::FloatMultAcc            0      0.00%     32.91% # Class of committed instruction
system.switch_cpus_1.commit.op_class_0::FloatDiv            0      0.00%     32.91% # Class of committed instruction
system.switch_cpus_1.commit.op_class_0::FloatMisc            0      0.00%     32.91% # Class of committed instruction
system.switch_cpus_1.commit.op_class_0::FloatSqrt            0      0.00%     32.91% # Class of committed instruction
system.switch_cpus_1.commit.op_class_0::SimdAdd            0      0.00%     32.91% # Class of committed instruction
system.switch_cpus_1.commit.op_class_0::SimdAddAcc            0      0.00%     32.91% # Class of committed instruction
system.switch_cpus_1.commit.op_class_0::SimdAlu      4853134      1.23%     34.13% # Class of committed instruction
system.switch_cpus_1.commit.op_class_0::SimdCmp            0      0.00%     34.13% # Class of committed instruction
system.switch_cpus_1.commit.op_class_0::SimdCvt            0      0.00%     34.13% # Class of committed instruction
system.switch_cpus_1.commit.op_class_0::SimdMisc            0      0.00%     34.13% # Class of committed instruction
system.switch_cpus_1.commit.op_class_0::SimdMult            0      0.00%     34.13% # Class of committed instruction
system.switch_cpus_1.commit.op_class_0::SimdMultAcc            0      0.00%     34.13% # Class of committed instruction
system.switch_cpus_1.commit.op_class_0::SimdShift            0      0.00%     34.13% # Class of committed instruction
system.switch_cpus_1.commit.op_class_0::SimdShiftAcc            0      0.00%     34.13% # Class of committed instruction
system.switch_cpus_1.commit.op_class_0::SimdDiv            0      0.00%     34.13% # Class of committed instruction
system.switch_cpus_1.commit.op_class_0::SimdSqrt            0      0.00%     34.13% # Class of committed instruction
system.switch_cpus_1.commit.op_class_0::SimdFloatAdd     71723818     18.10%     52.24% # Class of committed instruction
system.switch_cpus_1.commit.op_class_0::SimdFloatAlu            0      0.00%     52.24% # Class of committed instruction
system.switch_cpus_1.commit.op_class_0::SimdFloatCmp            0      0.00%     52.24% # Class of committed instruction
system.switch_cpus_1.commit.op_class_0::SimdFloatCvt            0      0.00%     52.24% # Class of committed instruction
system.switch_cpus_1.commit.op_class_0::SimdFloatDiv       151211      0.04%     52.27% # Class of committed instruction
system.switch_cpus_1.commit.op_class_0::SimdFloatMisc            0      0.00%     52.27% # Class of committed instruction
system.switch_cpus_1.commit.op_class_0::SimdFloatMult     52823110     13.33%     65.61% # Class of committed instruction
system.switch_cpus_1.commit.op_class_0::SimdFloatMultAcc            0      0.00%     65.61% # Class of committed instruction
system.switch_cpus_1.commit.op_class_0::SimdFloatSqrt            0      0.00%     65.61% # Class of committed instruction
system.switch_cpus_1.commit.op_class_0::SimdReduceAdd            0      0.00%     65.61% # Class of committed instruction
system.switch_cpus_1.commit.op_class_0::SimdReduceAlu            0      0.00%     65.61% # Class of committed instruction
system.switch_cpus_1.commit.op_class_0::SimdReduceCmp            0      0.00%     65.61% # Class of committed instruction
system.switch_cpus_1.commit.op_class_0::SimdFloatReduceAdd            0      0.00%     65.61% # Class of committed instruction
system.switch_cpus_1.commit.op_class_0::SimdFloatReduceCmp            0      0.00%     65.61% # Class of committed instruction
system.switch_cpus_1.commit.op_class_0::SimdAes            0      0.00%     65.61% # Class of committed instruction
system.switch_cpus_1.commit.op_class_0::SimdAesMix            0      0.00%     65.61% # Class of committed instruction
system.switch_cpus_1.commit.op_class_0::SimdSha1Hash            0      0.00%     65.61% # Class of committed instruction
system.switch_cpus_1.commit.op_class_0::SimdSha1Hash2            0      0.00%     65.61% # Class of committed instruction
system.switch_cpus_1.commit.op_class_0::SimdSha256Hash            0      0.00%     65.61% # Class of committed instruction
system.switch_cpus_1.commit.op_class_0::SimdSha256Hash2            0      0.00%     65.61% # Class of committed instruction
system.switch_cpus_1.commit.op_class_0::SimdShaSigma2            0      0.00%     65.61% # Class of committed instruction
system.switch_cpus_1.commit.op_class_0::SimdShaSigma3            0      0.00%     65.61% # Class of committed instruction
system.switch_cpus_1.commit.op_class_0::SimdPredAlu            0      0.00%     65.61% # Class of committed instruction
system.switch_cpus_1.commit.op_class_0::MemRead     14045376      3.55%     69.15% # Class of committed instruction
system.switch_cpus_1.commit.op_class_0::MemWrite      2677740      0.68%     69.83% # Class of committed instruction
system.switch_cpus_1.commit.op_class_0::FloatMemRead     93719300     23.66%     93.49% # Class of committed instruction
system.switch_cpus_1.commit.op_class_0::FloatMemWrite     25804496      6.51%    100.00% # Class of committed instruction
system.switch_cpus_1.commit.op_class_0::IprAccess            0      0.00%    100.00% # Class of committed instruction
system.switch_cpus_1.commit.op_class_0::InstPrefetch            0      0.00%    100.00% # Class of committed instruction
system.switch_cpus_1.commit.op_class_0::total    396157623                       # Class of committed instruction
system.switch_cpus_1.commit.refs            136246912                       # Number of memory references committed
system.switch_cpus_1.commit.swp_count               0                       # Number of s/w prefetches committed
system.switch_cpus_1.commit.vec_insts               0                       # Number of committed Vector instructions.
system.switch_cpus_1.committedInsts         250000000                       # Number of Instructions Simulated
system.switch_cpus_1.committedOps           396157623                       # Number of Ops (including micro ops) Simulated
system.switch_cpus_1.cpi                     1.098657                       # CPI: Cycles Per Instruction
system.switch_cpus_1.cpi_total               1.098657                       # CPI: Total CPI of All Threads
system.switch_cpus_1.decode.BlockedCycles    196370501                       # Number of cycles decode is blocked
system.switch_cpus_1.decode.DecodedInsts    396584742                       # Number of instructions handled by decode
system.switch_cpus_1.decode.IdleCycles       20947561                       # Number of cycles decode is idle
system.switch_cpus_1.decode.RunCycles        50758988                       # Number of cycles decode is running
system.switch_cpus_1.decode.SquashCycles         7700                       # Number of cycles decode is squashing
system.switch_cpus_1.decode.UnblockCycles      6579524                       # Number of cycles decode is unblocking
system.switch_cpus_1.dtb.rdAccesses         107875991                       # TLB accesses on read requests
system.switch_cpus_1.dtb.rdMisses               14870                       # TLB misses on read requests
system.switch_cpus_1.dtb.wrAccesses          28522191                       # TLB accesses on write requests
system.switch_cpus_1.dtb.wrMisses                9698                       # TLB misses on write requests
system.switch_cpus_1.fetch.Branches            321981                       # Number of branches that fetch encountered
system.switch_cpus_1.fetch.CacheLines        25387456                       # Number of cache lines fetched
system.switch_cpus_1.fetch.Cycles           249266400                       # Number of cycles fetch has run and was not squashing or blocked
system.switch_cpus_1.fetch.IcacheSquashes         1445                       # Number of outstanding Icache misses that were squashed
system.switch_cpus_1.fetch.Insts            250418490                       # Number of instructions fetch has processed
system.switch_cpus_1.fetch.SquashCycles         15400                       # Number of cycles fetch has spent squashing
system.switch_cpus_1.fetch.branchRate        0.001172                       # Number of branch fetches per cycle
system.switch_cpus_1.fetch.icacheStallCycles     25390240                       # Number of cycles fetch is stalled on an Icache miss
system.switch_cpus_1.fetch.predictedBranches       318024                       # Number of branches that fetch has predicted taken
system.switch_cpus_1.fetch.rate              0.911726                       # Number of inst fetches per cycle
system.switch_cpus_1.fetch.rateDist::samples    274664340                       # Number of instructions fetched each cycle (Total)
system.switch_cpus_1.fetch.rateDist::mean     1.444603                       # Number of instructions fetched each cycle (Total)
system.switch_cpus_1.fetch.rateDist::stdev     2.916807                       # Number of instructions fetched each cycle (Total)
system.switch_cpus_1.fetch.rateDist::underflows            0      0.00%      0.00% # Number of instructions fetched each cycle (Total)
system.switch_cpus_1.fetch.rateDist::0      212983736     77.54%     77.54% # Number of instructions fetched each cycle (Total)
system.switch_cpus_1.fetch.rateDist::1        5049096      1.84%     79.38% # Number of instructions fetched each cycle (Total)
system.switch_cpus_1.fetch.rateDist::2        3586013      1.31%     80.69% # Number of instructions fetched each cycle (Total)
system.switch_cpus_1.fetch.rateDist::3        1981491      0.72%     81.41% # Number of instructions fetched each cycle (Total)
system.switch_cpus_1.fetch.rateDist::4        2098749      0.76%     82.17% # Number of instructions fetched each cycle (Total)
system.switch_cpus_1.fetch.rateDist::5        3519302      1.28%     83.45% # Number of instructions fetched each cycle (Total)
system.switch_cpus_1.fetch.rateDist::6        3398459      1.24%     84.69% # Number of instructions fetched each cycle (Total)
system.switch_cpus_1.fetch.rateDist::7        4146937      1.51%     86.20% # Number of instructions fetched each cycle (Total)
system.switch_cpus_1.fetch.rateDist::8       37900557     13.80%    100.00% # Number of instructions fetched each cycle (Total)
system.switch_cpus_1.fetch.rateDist::overflows            0      0.00%    100.00% # Number of instructions fetched each cycle (Total)
system.switch_cpus_1.fetch.rateDist::min_value            0                       # Number of instructions fetched each cycle (Total)
system.switch_cpus_1.fetch.rateDist::max_value            8                       # Number of instructions fetched each cycle (Total)
system.switch_cpus_1.fetch.rateDist::total    274664340                       # Number of instructions fetched each cycle (Total)
system.switch_cpus_1.fp_regfile_reads       547739364                       # number of floating regfile reads
system.switch_cpus_1.fp_regfile_writes      337350109                       # number of floating regfile writes
system.switch_cpus_1.iew.branchMispredicts         2781                       # Number of branch mispredicts detected at execute
system.switch_cpus_1.iew.exec_branches         318585                       # Number of branches executed
system.switch_cpus_1.iew.exec_nop                   0                       # number of nop insts executed
system.switch_cpus_1.iew.exec_rate           1.469402                       # Inst execution rate
system.switch_cpus_1.iew.exec_refs          143554907                       # number of memory reference insts executed
system.switch_cpus_1.iew.exec_stores         28522191                       # Number of stores executed
system.switch_cpus_1.iew.exec_swp                   0                       # number of swp insts executed
system.switch_cpus_1.iew.iewBlockCycles      22031525                       # Number of cycles IEW is blocking
system.switch_cpus_1.iew.iewDispLoadInsts    107887584                       # Number of dispatched load instructions
system.switch_cpus_1.iew.iewDispNonSpecInsts            0                       # Number of dispatched non-speculative instructions
system.switch_cpus_1.iew.iewDispSquashedInsts           50                       # Number of squashed instructions skipped by dispatch
system.switch_cpus_1.iew.iewDispStoreInsts     28537166                       # Number of dispatched store instructions
system.switch_cpus_1.iew.iewDispatchedInsts    396502752                       # Number of instructions dispatched to IQ
system.switch_cpus_1.iew.iewExecLoadInsts    115032716                       # Number of load instructions executed
system.switch_cpus_1.iew.iewExecSquashedInsts        14663                       # Number of squashed instructions skipped in execute
system.switch_cpus_1.iew.iewExecutedInsts    403592281                       # Number of executed instructions
system.switch_cpus_1.iew.iewIQFullEvents       473452                       # Number of times the IQ has become full, causing a stall
system.switch_cpus_1.iew.iewIdleCycles              0                       # Number of cycles IEW is idle
system.switch_cpus_1.iew.iewLSQFullEvents     45881992                       # Number of times the LSQ has become full, causing a stall
system.switch_cpus_1.iew.iewSquashCycles         7700                       # Number of cycles IEW is squashing
system.switch_cpus_1.iew.iewUnblockCycles     46807303                       # Number of cycles IEW is unblocking
system.switch_cpus_1.iew.lsq.thread0.blockedLoads            0                       # Number of blocked loads due to partial load-store forwarding
system.switch_cpus_1.iew.lsq.thread0.cacheBlocked      1070201                       # Number of times an access to memory failed due to the cache being blocked
system.switch_cpus_1.iew.lsq.thread0.forwLoads      6816316                       # Number of loads that had data forwarded from stores
system.switch_cpus_1.iew.lsq.thread0.ignoredResponses           20                       # Number of memory responses ignored because the instruction is squashed
system.switch_cpus_1.iew.lsq.thread0.invAddrLoads            0                       # Number of loads ignored due to an invalid address
system.switch_cpus_1.iew.lsq.thread0.invAddrSwpfs            0                       # Number of software prefetches ignored due to an invalid address
system.switch_cpus_1.iew.lsq.thread0.memOrderViolation         3440                       # Number of memory ordering violations
system.switch_cpus_1.iew.lsq.thread0.rescheduledLoads            0                       # Number of loads that were rescheduled
system.switch_cpus_1.iew.lsq.thread0.squashedLoads       122898                       # Number of loads squashed
system.switch_cpus_1.iew.lsq.thread0.squashedStores        54930                       # Number of stores squashed
system.switch_cpus_1.iew.memOrderViolationEvents         3440                       # Number of memory order violations
system.switch_cpus_1.iew.predictedNotTakenIncorrect          156                       # Number of branches that were predicted not taken incorrectly
system.switch_cpus_1.iew.predictedTakenIncorrect         2625                       # Number of branches that were predicted taken incorrectly
system.switch_cpus_1.iew.wb_consumers       441740716                       # num instructions consuming a value
system.switch_cpus_1.iew.wb_count           396414300                       # cumulative count of insts written-back
system.switch_cpus_1.iew.wb_fanout           0.628789                       # average fanout of values written-back
system.switch_cpus_1.iew.wb_producers       277761833                       # num instructions producing a value
system.switch_cpus_1.iew.wb_rate             1.443268                       # insts written-back per cycle
system.switch_cpus_1.iew.wb_sent            396423023                       # cumulative count of insts sent to commit
system.switch_cpus_1.int_regfile_reads      300297216                       # number of integer regfile reads
system.switch_cpus_1.int_regfile_writes      30230860                       # number of integer regfile writes
system.switch_cpus_1.ipc                     0.910202                       # IPC: Instructions Per Cycle
system.switch_cpus_1.ipc_total               0.910202                       # IPC: Total IPC of All Threads
system.switch_cpus_1.iq.FU_type_0::No_OpClass         1361      0.00%      0.00% # Type of FU issued
system.switch_cpus_1.iq.FU_type_0::IntAlu     85441533     21.17%     21.17% # Type of FU issued
system.switch_cpus_1.iq.FU_type_0::IntMult           92      0.00%     21.17% # Type of FU issued
system.switch_cpus_1.iq.FU_type_0::IntDiv            0      0.00%     21.17% # Type of FU issued
system.switch_cpus_1.iq.FU_type_0::FloatAdd     44998526     11.15%     32.32% # Type of FU issued
system.switch_cpus_1.iq.FU_type_0::FloatCmp            0      0.00%     32.32% # Type of FU issued
system.switch_cpus_1.iq.FU_type_0::FloatCvt            0      0.00%     32.32% # Type of FU issued
system.switch_cpus_1.iq.FU_type_0::FloatMult            0      0.00%     32.32% # Type of FU issued
system.switch_cpus_1.iq.FU_type_0::FloatMultAcc            0      0.00%     32.32% # Type of FU issued
system.switch_cpus_1.iq.FU_type_0::FloatDiv            0      0.00%     32.32% # Type of FU issued
system.switch_cpus_1.iq.FU_type_0::FloatMisc            0      0.00%     32.32% # Type of FU issued
system.switch_cpus_1.iq.FU_type_0::FloatSqrt            0      0.00%     32.32% # Type of FU issued
system.switch_cpus_1.iq.FU_type_0::SimdAdd            0      0.00%     32.32% # Type of FU issued
system.switch_cpus_1.iq.FU_type_0::SimdAddAcc            0      0.00%     32.32% # Type of FU issued
system.switch_cpus_1.iq.FU_type_0::SimdAlu      4858654      1.20%     33.52% # Type of FU issued
system.switch_cpus_1.iq.FU_type_0::SimdCmp            0      0.00%     33.52% # Type of FU issued
system.switch_cpus_1.iq.FU_type_0::SimdCvt            0      0.00%     33.52% # Type of FU issued
system.switch_cpus_1.iq.FU_type_0::SimdMisc            0      0.00%     33.52% # Type of FU issued
system.switch_cpus_1.iq.FU_type_0::SimdMult            0      0.00%     33.52% # Type of FU issued
system.switch_cpus_1.iq.FU_type_0::SimdMultAcc            0      0.00%     33.52% # Type of FU issued
system.switch_cpus_1.iq.FU_type_0::SimdShift            0      0.00%     33.52% # Type of FU issued
system.switch_cpus_1.iq.FU_type_0::SimdShiftAcc            0      0.00%     33.52% # Type of FU issued
system.switch_cpus_1.iq.FU_type_0::SimdDiv            0      0.00%     33.52% # Type of FU issued
system.switch_cpus_1.iq.FU_type_0::SimdSqrt            0      0.00%     33.52% # Type of FU issued
system.switch_cpus_1.iq.FU_type_0::SimdFloatAdd     71746535     17.78%     51.30% # Type of FU issued
system.switch_cpus_1.iq.FU_type_0::SimdFloatAlu            0      0.00%     51.30% # Type of FU issued
system.switch_cpus_1.iq.FU_type_0::SimdFloatCmp            0      0.00%     51.30% # Type of FU issued
system.switch_cpus_1.iq.FU_type_0::SimdFloatCvt            0      0.00%     51.30% # Type of FU issued
system.switch_cpus_1.iq.FU_type_0::SimdFloatDiv       151211      0.04%     51.34% # Type of FU issued
system.switch_cpus_1.iq.FU_type_0::SimdFloatMisc            0      0.00%     51.34% # Type of FU issued
system.switch_cpus_1.iq.FU_type_0::SimdFloatMult     52844068     13.09%     64.43% # Type of FU issued
system.switch_cpus_1.iq.FU_type_0::SimdFloatMultAcc            0      0.00%     64.43% # Type of FU issued
system.switch_cpus_1.iq.FU_type_0::SimdFloatSqrt            0      0.00%     64.43% # Type of FU issued
system.switch_cpus_1.iq.FU_type_0::SimdReduceAdd            0      0.00%     64.43% # Type of FU issued
system.switch_cpus_1.iq.FU_type_0::SimdReduceAlu            0      0.00%     64.43% # Type of FU issued
system.switch_cpus_1.iq.FU_type_0::SimdReduceCmp            0      0.00%     64.43% # Type of FU issued
system.switch_cpus_1.iq.FU_type_0::SimdFloatReduceAdd            0      0.00%     64.43% # Type of FU issued
system.switch_cpus_1.iq.FU_type_0::SimdFloatReduceCmp            0      0.00%     64.43% # Type of FU issued
system.switch_cpus_1.iq.FU_type_0::SimdAes            0      0.00%     64.43% # Type of FU issued
system.switch_cpus_1.iq.FU_type_0::SimdAesMix            0      0.00%     64.43% # Type of FU issued
system.switch_cpus_1.iq.FU_type_0::SimdSha1Hash            0      0.00%     64.43% # Type of FU issued
system.switch_cpus_1.iq.FU_type_0::SimdSha1Hash2            0      0.00%     64.43% # Type of FU issued
system.switch_cpus_1.iq.FU_type_0::SimdSha256Hash            0      0.00%     64.43% # Type of FU issued
system.switch_cpus_1.iq.FU_type_0::SimdSha256Hash2            0      0.00%     64.43% # Type of FU issued
system.switch_cpus_1.iq.FU_type_0::SimdShaSigma2            0      0.00%     64.43% # Type of FU issued
system.switch_cpus_1.iq.FU_type_0::SimdShaSigma3            0      0.00%     64.43% # Type of FU issued
system.switch_cpus_1.iq.FU_type_0::SimdPredAlu            0      0.00%     64.43% # Type of FU issued
system.switch_cpus_1.iq.FU_type_0::MemRead     15941759      3.95%     68.38% # Type of FU issued
system.switch_cpus_1.iq.FU_type_0::MemWrite      2679270      0.66%     69.04% # Type of FU issued
system.switch_cpus_1.iq.FU_type_0::FloatMemRead     99098920     24.55%     93.60% # Type of FU issued
system.switch_cpus_1.iq.FU_type_0::FloatMemWrite     25845022      6.40%    100.00% # Type of FU issued
system.switch_cpus_1.iq.FU_type_0::IprAccess            0      0.00%    100.00% # Type of FU issued
system.switch_cpus_1.iq.FU_type_0::InstPrefetch            0      0.00%    100.00% # Type of FU issued
system.switch_cpus_1.iq.FU_type_0::total    403606951                       # Type of FU issued
system.switch_cpus_1.iq.fp_alu_accesses     371888885                       # Number of floating point alu accesses
system.switch_cpus_1.iq.fp_inst_queue_reads    740410463                       # Number of floating instruction queue reads
system.switch_cpus_1.iq.fp_inst_queue_wakeup_accesses    363186474                       # Number of floating instruction queue wakeup accesses
system.switch_cpus_1.iq.fp_inst_queue_writes    363522933                       # Number of floating instruction queue writes
system.switch_cpus_1.iq.fu_busy_cnt           4648702                       # FU busy when requested
system.switch_cpus_1.iq.fu_busy_rate         0.011518                       # FU busy rate (busy events/executed inst)
system.switch_cpus_1.iq.fu_full::No_OpClass            0      0.00%      0.00% # attempts to use FU when none available
system.switch_cpus_1.iq.fu_full::IntAlu            97      0.00%      0.00% # attempts to use FU when none available
system.switch_cpus_1.iq.fu_full::IntMult            0      0.00%      0.00% # attempts to use FU when none available
system.switch_cpus_1.iq.fu_full::IntDiv             0      0.00%      0.00% # attempts to use FU when none available
system.switch_cpus_1.iq.fu_full::FloatAdd            0      0.00%      0.00% # attempts to use FU when none available
system.switch_cpus_1.iq.fu_full::FloatCmp            0      0.00%      0.00% # attempts to use FU when none available
system.switch_cpus_1.iq.fu_full::FloatCvt            0      0.00%      0.00% # attempts to use FU when none available
system.switch_cpus_1.iq.fu_full::FloatMult            0      0.00%      0.00% # attempts to use FU when none available
system.switch_cpus_1.iq.fu_full::FloatMultAcc            0      0.00%      0.00% # attempts to use FU when none available
system.switch_cpus_1.iq.fu_full::FloatDiv            0      0.00%      0.00% # attempts to use FU when none available
system.switch_cpus_1.iq.fu_full::FloatMisc            0      0.00%      0.00% # attempts to use FU when none available
system.switch_cpus_1.iq.fu_full::FloatSqrt            0      0.00%      0.00% # attempts to use FU when none available
system.switch_cpus_1.iq.fu_full::SimdAdd            0      0.00%      0.00% # attempts to use FU when none available
system.switch_cpus_1.iq.fu_full::SimdAddAcc            0      0.00%      0.00% # attempts to use FU when none available
system.switch_cpus_1.iq.fu_full::SimdAlu        43498      0.94%      0.94% # attempts to use FU when none available
system.switch_cpus_1.iq.fu_full::SimdCmp            0      0.00%      0.94% # attempts to use FU when none available
system.switch_cpus_1.iq.fu_full::SimdCvt            0      0.00%      0.94% # attempts to use FU when none available
system.switch_cpus_1.iq.fu_full::SimdMisc            0      0.00%      0.94% # attempts to use FU when none available
system.switch_cpus_1.iq.fu_full::SimdMult            0      0.00%      0.94% # attempts to use FU when none available
system.switch_cpus_1.iq.fu_full::SimdMultAcc            0      0.00%      0.94% # attempts to use FU when none available
system.switch_cpus_1.iq.fu_full::SimdShift            0      0.00%      0.94% # attempts to use FU when none available
system.switch_cpus_1.iq.fu_full::SimdShiftAcc            0      0.00%      0.94% # attempts to use FU when none available
system.switch_cpus_1.iq.fu_full::SimdDiv            0      0.00%      0.94% # attempts to use FU when none available
system.switch_cpus_1.iq.fu_full::SimdSqrt            0      0.00%      0.94% # attempts to use FU when none available
system.switch_cpus_1.iq.fu_full::SimdFloatAdd       118866      2.56%      3.49% # attempts to use FU when none available
system.switch_cpus_1.iq.fu_full::SimdFloatAlu            0      0.00%      3.49% # attempts to use FU when none available
system.switch_cpus_1.iq.fu_full::SimdFloatCmp            0      0.00%      3.49% # attempts to use FU when none available
system.switch_cpus_1.iq.fu_full::SimdFloatCvt            0      0.00%      3.49% # attempts to use FU when none available
system.switch_cpus_1.iq.fu_full::SimdFloatDiv            0      0.00%      3.49% # attempts to use FU when none available
system.switch_cpus_1.iq.fu_full::SimdFloatMisc            0      0.00%      3.49% # attempts to use FU when none available
system.switch_cpus_1.iq.fu_full::SimdFloatMult        65250      1.40%      4.90% # attempts to use FU when none available
system.switch_cpus_1.iq.fu_full::SimdFloatMultAcc            0      0.00%      4.90% # attempts to use FU when none available
system.switch_cpus_1.iq.fu_full::SimdFloatSqrt            0      0.00%      4.90% # attempts to use FU when none available
system.switch_cpus_1.iq.fu_full::SimdReduceAdd            0      0.00%      4.90% # attempts to use FU when none available
system.switch_cpus_1.iq.fu_full::SimdReduceAlu            0      0.00%      4.90% # attempts to use FU when none available
system.switch_cpus_1.iq.fu_full::SimdReduceCmp            0      0.00%      4.90% # attempts to use FU when none available
system.switch_cpus_1.iq.fu_full::SimdFloatReduceAdd            0      0.00%      4.90% # attempts to use FU when none available
system.switch_cpus_1.iq.fu_full::SimdFloatReduceCmp            0      0.00%      4.90% # attempts to use FU when none available
system.switch_cpus_1.iq.fu_full::SimdAes            0      0.00%      4.90% # attempts to use FU when none available
system.switch_cpus_1.iq.fu_full::SimdAesMix            0      0.00%      4.90% # attempts to use FU when none available
system.switch_cpus_1.iq.fu_full::SimdSha1Hash            0      0.00%      4.90% # attempts to use FU when none available
system.switch_cpus_1.iq.fu_full::SimdSha1Hash2            0      0.00%      4.90% # attempts to use FU when none available
system.switch_cpus_1.iq.fu_full::SimdSha256Hash            0      0.00%      4.90% # attempts to use FU when none available
system.switch_cpus_1.iq.fu_full::SimdSha256Hash2            0      0.00%      4.90% # attempts to use FU when none available
system.switch_cpus_1.iq.fu_full::SimdShaSigma2            0      0.00%      4.90% # attempts to use FU when none available
system.switch_cpus_1.iq.fu_full::SimdShaSigma3            0      0.00%      4.90% # attempts to use FU when none available
system.switch_cpus_1.iq.fu_full::SimdPredAlu            0      0.00%      4.90% # attempts to use FU when none available
system.switch_cpus_1.iq.fu_full::MemRead      1143692     24.60%     29.50% # attempts to use FU when none available
system.switch_cpus_1.iq.fu_full::MemWrite       136552      2.94%     32.44% # attempts to use FU when none available
system.switch_cpus_1.iq.fu_full::FloatMemRead      3101239     66.71%     99.15% # attempts to use FU when none available
system.switch_cpus_1.iq.fu_full::FloatMemWrite        39508      0.85%    100.00% # attempts to use FU when none available
system.switch_cpus_1.iq.fu_full::IprAccess            0      0.00%    100.00% # attempts to use FU when none available
system.switch_cpus_1.iq.fu_full::InstPrefetch            0      0.00%    100.00% # attempts to use FU when none available
system.switch_cpus_1.iq.int_alu_accesses     36365407                       # Number of integer alu accesses
system.switch_cpus_1.iq.int_inst_queue_reads    346118946                       # Number of integer instruction queue reads
system.switch_cpus_1.iq.int_inst_queue_wakeup_accesses     33227826                       # Number of integer instruction queue wakeup accesses
system.switch_cpus_1.iq.int_inst_queue_writes     33328316                       # Number of integer instruction queue writes
system.switch_cpus_1.iq.iqInstsAdded        396502752                       # Number of instructions added to the IQ (excludes non-spec)
system.switch_cpus_1.iq.iqInstsIssued       403606951                       # Number of instructions issued
system.switch_cpus_1.iq.iqSquashedInstsExamined       345077                       # Number of squashed instructions iterated over during squash; mainly for profiling
system.switch_cpus_1.iq.iqSquashedInstsIssued         2472                       # Number of squashed instructions issued
system.switch_cpus_1.iq.iqSquashedOperandsExamined       261276                       # Number of squashed operands that are examined and possibly removed from graph
system.switch_cpus_1.iq.issued_per_cycle::samples    274664340                       # Number of insts issued each cycle
system.switch_cpus_1.iq.issued_per_cycle::mean     1.469455                       # Number of insts issued each cycle
system.switch_cpus_1.iq.issued_per_cycle::stdev     2.319002                       # Number of insts issued each cycle
system.switch_cpus_1.iq.issued_per_cycle::underflows            0      0.00%      0.00% # Number of insts issued each cycle
system.switch_cpus_1.iq.issued_per_cycle::0    171430375     62.41%     62.41% # Number of insts issued each cycle
system.switch_cpus_1.iq.issued_per_cycle::1     17871993      6.51%     68.92% # Number of insts issued each cycle
system.switch_cpus_1.iq.issued_per_cycle::2     17210470      6.27%     75.19% # Number of insts issued each cycle
system.switch_cpus_1.iq.issued_per_cycle::3     12777913      4.65%     79.84% # Number of insts issued each cycle
system.switch_cpus_1.iq.issued_per_cycle::4     14357216      5.23%     85.07% # Number of insts issued each cycle
system.switch_cpus_1.iq.issued_per_cycle::5     12585358      4.58%     89.65% # Number of insts issued each cycle
system.switch_cpus_1.iq.issued_per_cycle::6     13433699      4.89%     94.54% # Number of insts issued each cycle
system.switch_cpus_1.iq.issued_per_cycle::7      7956097      2.90%     97.44% # Number of insts issued each cycle
system.switch_cpus_1.iq.issued_per_cycle::8      7041219      2.56%    100.00% # Number of insts issued each cycle
system.switch_cpus_1.iq.issued_per_cycle::overflows            0      0.00%    100.00% # Number of insts issued each cycle
system.switch_cpus_1.iq.issued_per_cycle::min_value            0                       # Number of insts issued each cycle
system.switch_cpus_1.iq.issued_per_cycle::max_value            8                       # Number of insts issued each cycle
system.switch_cpus_1.iq.issued_per_cycle::total    274664340                       # Number of insts issued each cycle
system.switch_cpus_1.iq.rate                 1.469455                       # Inst issue rate
system.switch_cpus_1.iq.vec_alu_accesses            0                       # Number of vector alu accesses
system.switch_cpus_1.iq.vec_inst_queue_reads            0                       # Number of vector instruction queue reads
system.switch_cpus_1.iq.vec_inst_queue_wakeup_accesses            0                       # Number of vector instruction queue wakeup accesses
system.switch_cpus_1.iq.vec_inst_queue_writes            0                       # Number of vector instruction queue writes
system.switch_cpus_1.itb.rdAccesses                 0                       # TLB accesses on read requests
system.switch_cpus_1.itb.rdMisses                   0                       # TLB misses on read requests
system.switch_cpus_1.itb.wrAccesses          25387456                       # TLB accesses on write requests
system.switch_cpus_1.itb.wrMisses                   6                       # TLB misses on write requests
system.switch_cpus_1.memDep0.conflictingLoads      2419323                       # Number of conflicting loads.
system.switch_cpus_1.memDep0.conflictingStores      1031622                       # Number of conflicting stores.
system.switch_cpus_1.memDep0.insertedLoads    107887584                       # Number of loads inserted to the mem dependence unit.
system.switch_cpus_1.memDep0.insertedStores     28537166                       # Number of stores inserted to the mem dependence unit.
system.switch_cpus_1.misc_regfile_reads     150404597                       # number of misc regfile reads
system.switch_cpus_1.numCycles              274664340                       # number of cpu cycles simulated
system.switch_cpus_1.numWorkItemsCompleted            0                       # number of work items this cpu completed
system.switch_cpus_1.numWorkItemsStarted            0                       # number of work items this cpu started
system.switch_cpus_1.rename.BlockCycles      72491842                       # Number of cycles rename is blocking
system.switch_cpus_1.rename.CommittedMaps    376956018                       # Number of HB maps that are committed
system.switch_cpus_1.rename.IQFullEvents      8270575                       # Number of times rename has blocked due to IQ full
system.switch_cpus_1.rename.IdleCycles       23964543                       # Number of cycles rename is idle
system.switch_cpus_1.rename.LQFullEvents     55962059                       # Number of times rename has blocked due to LQ full
system.switch_cpus_1.rename.ROBFullEvents        23769                       # Number of times rename has blocked due to ROB full
system.switch_cpus_1.rename.RenameLookups    978858110                       # Number of register rename lookups that rename has made
system.switch_cpus_1.rename.RenamedInsts    396541460                       # Number of instructions processed by rename
system.switch_cpus_1.rename.RenamedOperands    377295408                       # Number of destination operands rename has renamed
system.switch_cpus_1.rename.RunCycles        54050883                       # Number of cycles rename is running
system.switch_cpus_1.rename.SQFullEvents     60862824                       # Number of times rename has blocked due to SQ full
system.switch_cpus_1.rename.SquashCycles         7700                       # Number of cycles rename is squashing
system.switch_cpus_1.rename.UnblockCycles    124149306                       # Number of cycles rename is unblocking
system.switch_cpus_1.rename.UndoneMaps         339333                       # Number of HB maps that are undone due to squashing
system.switch_cpus_1.rename.fp_rename_lookups    547870222                       # Number of floating rename lookups
system.switch_cpus_1.rename.int_rename_lookups    286092663                       # Number of integer rename lookups
system.switch_cpus_1.rename.serializeStallCycles            0                       # count of cycles rename stalled for serializing inst
system.switch_cpus_1.rename.serializingInsts            0                       # count of serializing insts renamed
system.switch_cpus_1.rename.skidInsts        41478949                       # count of insts added to the skid buffer
system.switch_cpus_1.rename.tempSerializingInsts            0                       # count of temporary serializing insts renamed
system.switch_cpus_1.rob.rob_reads          642005296                       # The number of ROB reads
system.switch_cpus_1.rob.rob_writes         793064249                       # The number of ROB writes
system.tol2bus.snoop_filter.hit_multi_requests            0                       # Number of requests hitting in the snoop filter with multiple (>1) holders of the requested data.
system.tol2bus.snoop_filter.hit_multi_snoops            0                       # Number of snoops hitting in the snoop filter with multiple (>1) holders of the requested data.
system.tol2bus.snoop_filter.hit_single_requests      3755185                       # Number of requests hitting in the snoop filter with a single holder of the requested data.
system.tol2bus.snoop_filter.hit_single_snoops        27691                       # Number of snoops hitting in the snoop filter with a single holder of the requested data.
system.tol2bus.snoop_filter.tot_requests      7501434                       # Total number of requests made to the snoop filter.
system.tol2bus.snoop_filter.tot_snoops          27691                       # Total number of snoops made to the snoop filter.
system.tol3bus.snoop_filter.hit_multi_requests            0                       # Number of requests hitting in the snoop filter with multiple (>1) holders of the requested data.
system.tol3bus.snoop_filter.hit_multi_snoops            0                       # Number of snoops hitting in the snoop filter with multiple (>1) holders of the requested data.
system.tol3bus.snoop_filter.hit_single_requests      3421940                       # Number of requests hitting in the snoop filter with a single holder of the requested data.
system.tol3bus.snoop_filter.hit_single_snoops       264508                       # Number of snoops hitting in the snoop filter with a single holder of the requested data.
system.tol3bus.snoop_filter.tot_requests      6843807                       # Total number of requests made to the snoop filter.
system.tol3bus.snoop_filter.tot_snoops         264508                       # Total number of snoops made to the snoop filter.
system.membus.trans_dist::ReadResp             901738                       # Transaction distribution
system.membus.trans_dist::WritebackDirty       371568                       # Transaction distribution
system.membus.trans_dist::CleanEvict           903383                       # Transaction distribution
system.membus.trans_dist::ReadExReq            371700                       # Transaction distribution
system.membus.trans_dist::ReadExResp           371700                       # Transaction distribution
system.membus.trans_dist::ReadSharedReq        901738                       # Transaction distribution
system.membus.pkt_count_system.l3.mem_side::system.mem_ctrls.port      3821827                       # Packet count per connected master and slave (bytes)
system.membus.pkt_count_system.l3.mem_side::total      3821827                       # Packet count per connected master and slave (bytes)
system.membus.pkt_count::total                3821827                       # Packet count per connected master and slave (bytes)
system.membus.pkt_size_system.l3.mem_side::system.mem_ctrls.port    105280384                       # Cumulative packet size per connected master and slave (bytes)
system.membus.pkt_size_system.l3.mem_side::total    105280384                       # Cumulative packet size per connected master and slave (bytes)
system.membus.pkt_size::total               105280384                       # Cumulative packet size per connected master and slave (bytes)
system.membus.snoops                                0                       # Total snoops (count)
system.membus.snoopTraffic                          0                       # Total snoop traffic (bytes)
system.membus.snoop_fanout::samples           1273438                       # Request fanout histogram
system.membus.snoop_fanout::mean                    0                       # Request fanout histogram
system.membus.snoop_fanout::stdev                   0                       # Request fanout histogram
system.membus.snoop_fanout::underflows              0      0.00%      0.00% # Request fanout histogram
system.membus.snoop_fanout::0                 1273438    100.00%    100.00% # Request fanout histogram
system.membus.snoop_fanout::1                       0      0.00%    100.00% # Request fanout histogram
system.membus.snoop_fanout::overflows               0      0.00%    100.00% # Request fanout histogram
system.membus.snoop_fanout::min_value               0                       # Request fanout histogram
system.membus.snoop_fanout::max_value               0                       # Request fanout histogram
system.membus.snoop_fanout::total             1273438                       # Request fanout histogram
system.membus.reqLayer2.occupancy          4294720000                       # Layer occupancy (ticks)
system.membus.reqLayer2.utilization               3.1                       # Layer utilization (%)
system.membus.respLayer1.occupancy         6967045750                       # Layer occupancy (ticks)
system.membus.respLayer1.utilization              5.1                       # Layer utilization (%)
system.membus.power_state.pwrStateResidencyTicks::UNDEFINED 1368820677500                       # Cumulative time (in ticks) in various power states
system.switch_cpus_1.dtb.walker.power_state.pwrStateResidencyTicks::UNDEFINED 1368820677500                       # Cumulative time (in ticks) in various power states
system.switch_cpus_1.itb.walker.power_state.pwrStateResidencyTicks::UNDEFINED 1368820677500                       # Cumulative time (in ticks) in various power states
system.switch_cpus_1.power_state.pwrStateResidencyTicks::OFF 1368820677500                       # Cumulative time (in ticks) in various power states
system.switch_cpus.dtb.walker.power_state.pwrStateResidencyTicks::UNDEFINED 1368820677500                       # Cumulative time (in ticks) in various power states
system.switch_cpus.itb.walker.power_state.pwrStateResidencyTicks::UNDEFINED 1368820677500                       # Cumulative time (in ticks) in various power states
system.switch_cpus.power_state.numTransitions            1                       # Number of power state transitions
system.switch_cpus.power_state.pwrStateResidencyTicks::OFF 1368820677500                       # Cumulative time (in ticks) in various power states
system.tol2bus.trans_dist::ReadResp           3097365                       # Transaction distribution
system.tol2bus.trans_dist::WritebackDirty      1030962                       # Transaction distribution
system.tol2bus.trans_dist::WritebackClean            7                       # Transaction distribution
system.tol2bus.trans_dist::CleanEvict         3352926                       # Transaction distribution
system.tol2bus.trans_dist::UpgradeReq            8936                       # Transaction distribution
system.tol2bus.trans_dist::UpgradeResp           8936                       # Transaction distribution
system.tol2bus.trans_dist::ReadExReq           648884                       # Transaction distribution
system.tol2bus.trans_dist::ReadExResp          648884                       # Transaction distribution
system.tol2bus.trans_dist::ReadCleanReq       3097365                       # Transaction distribution
system.tol2bus.pkt_count_system.cpu.icache.mem_side::system.l2.cpu_side           21                       # Packet count per connected master and slave (bytes)
system.tol2bus.pkt_count_system.cpu.dcache.mem_side::system.l2.cpu_side     11256598                       # Packet count per connected master and slave (bytes)
system.tol2bus.pkt_count::total              11256619                       # Packet count per connected master and slave (bytes)
system.tol2bus.pkt_size_system.cpu.icache.mem_side::system.l2.cpu_side          896                       # Cumulative packet size per connected master and slave (bytes)
system.tol2bus.pkt_size_system.cpu.dcache.mem_side::system.l2.cpu_side    281860608                       # Cumulative packet size per connected master and slave (bytes)
system.tol2bus.pkt_size::total              281861504                       # Cumulative packet size per connected master and slave (bytes)
system.tol2bus.snoops                          637646                       # Total snoops (count)
system.tol2bus.snoopTraffic                  23880448                       # Total snoop traffic (bytes)
system.tol2bus.snoop_fanout::samples          4392831                       # Request fanout histogram
system.tol2bus.snoop_fanout::mean            0.006304                       # Request fanout histogram
system.tol2bus.snoop_fanout::stdev           0.079145                       # Request fanout histogram
system.tol2bus.snoop_fanout::underflows             0      0.00%      0.00% # Request fanout histogram
system.tol2bus.snoop_fanout::0                4365140     99.37%     99.37% # Request fanout histogram
system.tol2bus.snoop_fanout::1                  27691      0.63%    100.00% # Request fanout histogram
system.tol2bus.snoop_fanout::2                      0      0.00%    100.00% # Request fanout histogram
system.tol2bus.snoop_fanout::3                      0      0.00%    100.00% # Request fanout histogram
system.tol2bus.snoop_fanout::4                      0      0.00%    100.00% # Request fanout histogram
system.tol2bus.snoop_fanout::overflows              0      0.00%    100.00% # Request fanout histogram
system.tol2bus.snoop_fanout::min_value              0                       # Request fanout histogram
system.tol2bus.snoop_fanout::max_value              1                       # Request fanout histogram
system.tol2bus.snoop_fanout::total            4392831                       # Request fanout histogram
system.tol2bus.reqLayer0.occupancy         4408554000                       # Layer occupancy (ticks)
system.tol2bus.reqLayer0.utilization              3.2                       # Layer utilization (%)
system.tol2bus.respLayer1.occupancy        5623831000                       # Layer occupancy (ticks)
system.tol2bus.respLayer1.utilization             4.1                       # Layer utilization (%)
system.tol2bus.respLayer0.occupancy             10500                       # Layer occupancy (ticks)
system.tol2bus.respLayer0.utilization             0.0                       # Layer utilization (%)
system.tol2bus.power_state.pwrStateResidencyTicks::UNDEFINED 1368820677500                       # Cumulative time (in ticks) in various power states
system.voltage_domain.voltage                       1                       # Voltage in Volts
system.clk_domain.clock                          1000                       # Clock period in ticks
system.l2.demand_hits::.switch_cpus_1.data       324382                       # number of demand (read+write) hits
system.l2.demand_hits::total                   324382                       # number of demand (read+write) hits
system.l2.overall_hits::.switch_cpus_1.data       324382                       # number of overall hits
system.l2.overall_hits::total                  324382                       # number of overall hits
system.l2.demand_misses::.switch_cpus_1.inst            7                       # number of demand (read+write) misses
system.l2.demand_misses::.switch_cpus_1.data      3421860                       # number of demand (read+write) misses
system.l2.demand_misses::total                3421867                       # number of demand (read+write) misses
system.l2.overall_misses::.switch_cpus_1.inst            7                       # number of overall misses
system.l2.overall_misses::.switch_cpus_1.data      3421860                       # number of overall misses
system.l2.overall_misses::total               3421867                       # number of overall misses
system.l2.demand_miss_latency::.switch_cpus_1.inst      1117000                       # number of demand (read+write) miss cycles
system.l2.demand_miss_latency::.switch_cpus_1.data 212083209500                       # number of demand (read+write) miss cycles
system.l2.demand_miss_latency::total     212084326500                       # number of demand (read+write) miss cycles
system.l2.overall_miss_latency::.switch_cpus_1.inst      1117000                       # number of overall miss cycles
system.l2.overall_miss_latency::.switch_cpus_1.data 212083209500                       # number of overall miss cycles
system.l2.overall_miss_latency::total    212084326500                       # number of overall miss cycles
system.l2.demand_accesses::.switch_cpus_1.inst            7                       # number of demand (read+write) accesses
system.l2.demand_accesses::.switch_cpus_1.data      3746242                       # number of demand (read+write) accesses
system.l2.demand_accesses::total              3746249                       # number of demand (read+write) accesses
system.l2.overall_accesses::.switch_cpus_1.inst            7                       # number of overall (read+write) accesses
system.l2.overall_accesses::.switch_cpus_1.data      3746242                       # number of overall (read+write) accesses
system.l2.overall_accesses::total             3746249                       # number of overall (read+write) accesses
system.l2.demand_miss_rate::.switch_cpus_1.inst            1                       # miss rate for demand accesses
system.l2.demand_miss_rate::.switch_cpus_1.data     0.913411                       # miss rate for demand accesses
system.l2.demand_miss_rate::total            0.913412                       # miss rate for demand accesses
system.l2.overall_miss_rate::.switch_cpus_1.inst            1                       # miss rate for overall accesses
system.l2.overall_miss_rate::.switch_cpus_1.data     0.913411                       # miss rate for overall accesses
system.l2.overall_miss_rate::total           0.913412                       # miss rate for overall accesses
system.l2.demand_avg_miss_latency::.switch_cpus_1.inst 159571.428571                       # average overall miss latency
system.l2.demand_avg_miss_latency::.switch_cpus_1.data 61978.926519                       # average overall miss latency
system.l2.demand_avg_miss_latency::total 61979.126161                       # average overall miss latency
system.l2.overall_avg_miss_latency::.switch_cpus_1.inst 159571.428571                       # average overall miss latency
system.l2.overall_avg_miss_latency::.switch_cpus_1.data 61978.926519                       # average overall miss latency
system.l2.overall_avg_miss_latency::total 61979.126161                       # average overall miss latency
system.l2.blocked_cycles::no_mshrs                  0                       # number of cycles access was blocked
system.l2.blocked_cycles::no_targets                0                       # number of cycles access was blocked
system.l2.blocked::no_mshrs                         0                       # number of cycles access was blocked
[...]
system.cpu.dcache.overall_misses::total      27589181                       # number of overall misses
system.cpu.dcache.demand_miss_latency::.switch_cpus.data  42653656000                       # number of demand (read+write) miss cycles
system.cpu.dcache.demand_miss_latency::.switch_cpus_1.data 246681543191                       # number of demand (read+write) miss cycles
system.cpu.dcache.demand_miss_latency::total 289335199191                       # number of demand (read+write) miss cycles
system.cpu.dcache.overall_miss_latency::.switch_cpus.data  42653656000                       # number of overall miss cycles
system.cpu.dcache.overall_miss_latency::.switch_cpus_1.data 246681543191                       # number of overall miss cycles
system.cpu.dcache.overall_miss_latency::total 289335199191                       # number of overall miss cycles
system.cpu.dcache.demand_accesses::.cpu.data    413943432                       # number of demand (read+write) accesses
system.cpu.dcache.demand_accesses::.switch_cpus.data     27203601                       # number of demand (read+write) accesses
system.cpu.dcache.demand_accesses::.switch_cpus_1.data    129540809                       # number of demand (read+write) accesses
system.cpu.dcache.demand_accesses::total    570687842                       # number of demand (read+write) accesses
system.cpu.dcache.overall_accesses::.cpu.data    413943432                       # number of overall (read+write) accesses
system.cpu.dcache.overall_accesses::.switch_cpus.data     27203601                       # number of overall (read+write) accesses
system.cpu.dcache.overall_accesses::.switch_cpus_1.data    129540809                       # number of overall (read+write) accesses
system.cpu.dcache.overall_accesses::total    570687842                       # number of overall (read+write) accesses
system.cpu.dcache.demand_miss_rate::.cpu.data     0.053787                       # miss rate for demand accesses
system.cpu.dcache.demand_miss_rate::.switch_cpus.data     0.028932                       # miss rate for demand accesses
system.cpu.dcache.demand_miss_rate::.switch_cpus_1.data     0.035025                       # miss rate for demand accesses
system.cpu.dcache.demand_miss_rate::total     0.048344                       # miss rate for demand accesses
system.cpu.dcache.overall_miss_rate::.cpu.data     0.053787                       # miss rate for overall accesses
system.cpu.dcache.overall_miss_rate::.switch_cpus.data     0.028932                       # miss rate for overall accesses
system.cpu.dcache.overall_miss_rate::.switch_cpus_1.data     0.035025                       # miss rate for overall accesses
system.cpu.dcache.overall_miss_rate::total     0.048344                       # miss rate for overall accesses
system.cpu.dcache.demand_avg_miss_latency::.switch_cpus.data 54194.960618                       # average overall miss latency
system.cpu.dcache.demand_avg_miss_latency::.switch_cpus_1.data 54368.780858                       # average overall miss latency
system.cpu.dcache.demand_avg_miss_latency::total 10487.270325                       # average overall miss latency
system.cpu.dcache.overall_avg_miss_latency::.switch_cpus.data 54194.960618                       # average overall miss latency
system.cpu.dcache.overall_avg_miss_latency::.switch_cpus_1.data 54368.780858                       # average overall miss latency
system.cpu.dcache.overall_avg_miss_latency::total 10487.270325                       # average overall miss latency
system.cpu.dcache.blocked_cycles::no_mshrs     54608661                       # number of cycles access was blocked
system.cpu.dcache.blocked_cycles::no_targets            0                       # number of cycles access was blocked
system.cpu.dcache.blocked::no_mshrs           1122596                       # number of cycles access was blocked
system.cpu.dcache.blocked::no_targets               0                       # number of cycles access was blocked
system.cpu.dcache.avg_blocked_cycles::no_mshrs    48.644981                       # average number of cycles each access was blocked
system.cpu.dcache.avg_blocked_cycles::no_targets          nan                       # average number of cycles each access was blocked
system.cpu.dcache.writebacks::.writebacks     16182892                       # number of writebacks
system.cpu.dcache.writebacks::total          16182892                       # number of writebacks
system.cpu.dcache.demand_mshr_hits::.switch_cpus_1.data       782013                       # number of demand (read+write) MSHR hits
system.cpu.dcache.demand_mshr_hits::total       782013                       # number of demand (read+write) MSHR hits
system.cpu.dcache.overall_mshr_hits::.switch_cpus_1.data       782013                       # number of overall MSHR hits
system.cpu.dcache.overall_mshr_hits::total       782013                       # number of overall MSHR hits
system.cpu.dcache.demand_mshr_misses::.switch_cpus.data       787041                       # number of demand (read+write) MSHR misses
system.cpu.dcache.demand_mshr_misses::.switch_cpus_1.data      3755178                       # number of demand (read+write) MSHR misses
system.cpu.dcache.demand_mshr_misses::total      4542219                       # number of demand (read+write) MSHR misses
system.cpu.dcache.overall_mshr_misses::.switch_cpus.data       787041                       # number of overall MSHR misses
system.cpu.dcache.overall_mshr_misses::.switch_cpus_1.data      3755178                       # number of overall MSHR misses
system.cpu.dcache.overall_mshr_misses::total      4542219                       # number of overall MSHR misses
system.cpu.dcache.demand_mshr_miss_latency::.switch_cpus.data  41866615000                       # number of demand (read+write) MSHR miss cycles
system.cpu.dcache.demand_mshr_miss_latency::.switch_cpus_1.data 223148955691                       # number of demand (read+write) MSHR miss cycles
system.cpu.dcache.demand_mshr_miss_latency::total 265015570691                       # number of demand (read+write) MSHR miss cycles
system.cpu.dcache.overall_mshr_miss_latency::.switch_cpus.data  41866615000                       # number of overall MSHR miss cycles
system.cpu.dcache.overall_mshr_miss_latency::.switch_cpus_1.data 223148955691                       # number of overall MSHR miss cycles
system.cpu.dcache.overall_mshr_miss_latency::total 265015570691                       # number of overall MSHR miss cycles
system.cpu.dcache.demand_mshr_miss_rate::.switch_cpus.data     0.028932                       # mshr miss rate for demand accesses
system.cpu.dcache.demand_mshr_miss_rate::.switch_cpus_1.data     0.028988                       # mshr miss rate for demand accesses
system.cpu.dcache.demand_mshr_miss_rate::total     0.007959                       # mshr miss rate for demand accesses
system.cpu.dcache.overall_mshr_miss_rate::.switch_cpus.data     0.028932                       # mshr miss rate for overall accesses
system.cpu.dcache.overall_mshr_miss_rate::.switch_cpus_1.data     0.028988                       # mshr miss rate for overall accesses
system.cpu.dcache.overall_mshr_miss_rate::total     0.007959                       # mshr miss rate for overall accesses
system.cpu.dcache.demand_avg_mshr_miss_latency::.switch_cpus.data 53194.960618                       # average overall mshr miss latency
system.cpu.dcache.demand_avg_mshr_miss_latency::.switch_cpus_1.data 59424.335062                       # average overall mshr miss latency
system.cpu.dcache.demand_avg_mshr_miss_latency::total 58344.956659                       # average overall mshr miss latency
system.cpu.dcache.overall_avg_mshr_miss_latency::.switch_cpus.data 53194.960618                       # average overall mshr miss latency
system.cpu.dcache.overall_avg_mshr_miss_latency::.switch_cpus_1.data 59424.335062                       # average overall mshr miss latency
system.cpu.dcache.overall_avg_mshr_miss_latency::total 58344.956659                       # average overall mshr miss latency
system.cpu.dcache.replacements               26787590                       # number of replacements
system.cpu.dcache.ReadReq_hits::.cpu.data    284827744                       # number of ReadReq hits
system.cpu.dcache.ReadReq_hits::.switch_cpus.data     20898792                       # number of ReadReq hits
system.cpu.dcache.ReadReq_hits::.switch_cpus_1.data     97179202                       # number of ReadReq hits
system.cpu.dcache.ReadReq_hits::total       402905738                       # number of ReadReq hits
system.cpu.dcache.ReadReq_misses::.cpu.data      6896241                       # number of ReadReq misses
system.cpu.dcache.ReadReq_misses::.switch_cpus.data       630634                       # number of ReadReq misses
system.cpu.dcache.ReadReq_misses::.switch_cpus_1.data      3879371                       # number of ReadReq misses
system.cpu.dcache.ReadReq_misses::total      11406246                       # number of ReadReq misses
system.cpu.dcache.ReadReq_miss_latency::.switch_cpus.data  33892544000                       # number of ReadReq miss cycles
system.cpu.dcache.ReadReq_miss_latency::.switch_cpus_1.data 199649488000                       # number of ReadReq miss cycles
system.cpu.dcache.ReadReq_miss_latency::total 233542032000                       # number of ReadReq miss cycles
system.cpu.dcache.ReadReq_accesses::.cpu.data    291723985                       # number of ReadReq accesses(hits+misses)
system.cpu.dcache.ReadReq_accesses::.switch_cpus.data     21529426                       # number of ReadReq accesses(hits+misses)
system.cpu.dcache.ReadReq_accesses::.switch_cpus_1.data    101058573                       # number of ReadReq accesses(hits+misses)
system.cpu.dcache.ReadReq_accesses::total    414311984                       # number of ReadReq accesses(hits+misses)
system.cpu.dcache.ReadReq_miss_rate::.cpu.data     0.023640                       # miss rate for ReadReq accesses
system.cpu.dcache.ReadReq_miss_rate::.switch_cpus.data     0.029292                       # miss rate for ReadReq accesses
system.cpu.dcache.ReadReq_miss_rate::.switch_cpus_1.data     0.038387                       # miss rate for ReadReq accesses
system.cpu.dcache.ReadReq_miss_rate::total     0.027531                       # miss rate for ReadReq accesses
system.cpu.dcache.ReadReq_avg_miss_latency::.switch_cpus.data 53743.604056                       # average ReadReq miss latency
system.cpu.dcache.ReadReq_avg_miss_latency::.switch_cpus_1.data 51464.396677                       # average ReadReq miss latency
system.cpu.dcache.ReadReq_avg_miss_latency::total 20474.925054                       # average ReadReq miss latency
system.cpu.dcache.ReadReq_mshr_hits::.switch_cpus_1.data       782013                       # number of ReadReq MSHR hits
system.cpu.dcache.ReadReq_mshr_hits::total       782013                       # number of ReadReq MSHR hits
system.cpu.dcache.ReadReq_mshr_misses::.switch_cpus.data       630634                       # number of ReadReq MSHR misses
system.cpu.dcache.ReadReq_mshr_misses::.switch_cpus_1.data      3097358                       # number of ReadReq MSHR misses
system.cpu.dcache.ReadReq_mshr_misses::total      3727992                       # number of ReadReq MSHR misses
system.cpu.dcache.ReadReq_mshr_miss_latency::.switch_cpus.data  33261910000                       # number of ReadReq MSHR miss cycles
system.cpu.dcache.ReadReq_mshr_miss_latency::.switch_cpus_1.data 176774720500                       # number of ReadReq MSHR miss cycles
system.cpu.dcache.ReadReq_mshr_miss_latency::total 210036630500                       # number of ReadReq MSHR miss cycles
system.cpu.dcache.ReadReq_mshr_miss_rate::.switch_cpus.data     0.029292                       # mshr miss rate for ReadReq accesses
system.cpu.dcache.ReadReq_mshr_miss_rate::.switch_cpus_1.data     0.030649                       # mshr miss rate for ReadReq accesses
system.cpu.dcache.ReadReq_mshr_miss_rate::total     0.008998                       # mshr miss rate for ReadReq accesses
system.cpu.dcache.ReadReq_avg_mshr_miss_latency::.switch_cpus.data 52743.604056                       # average ReadReq mshr miss latency
system.cpu.dcache.ReadReq_avg_mshr_miss_latency::.switch_cpus_1.data 57072.744094                       # average ReadReq mshr miss latency
system.cpu.dcache.ReadReq_avg_mshr_miss_latency::total 56340.418783                       # average ReadReq mshr miss latency
system.cpu.dcache.WriteReq_hits::.cpu.data    106850739                       # number of WriteReq hits
system.cpu.dcache.WriteReq_hits::.switch_cpus.data      5517768                       # number of WriteReq hits
system.cpu.dcache.WriteReq_hits::.switch_cpus_1.data     27824416                       # number of WriteReq hits
system.cpu.dcache.WriteReq_hits::total      140192923                       # number of WriteReq hits
system.cpu.dcache.WriteReq_misses::.cpu.data     15368708                       # number of WriteReq misses
system.cpu.dcache.WriteReq_misses::.switch_cpus.data       156407                       # number of WriteReq misses
system.cpu.dcache.WriteReq_misses::.switch_cpus_1.data       657820                       # number of WriteReq misses
system.cpu.dcache.WriteReq_misses::total     16182935                       # number of WriteReq misses
system.cpu.dcache.WriteReq_miss_latency::.switch_cpus.data   8761112000                       # number of WriteReq miss cycles
system.cpu.dcache.WriteReq_miss_latency::.switch_cpus_1.data  47032055191                       # number of WriteReq miss cycles
system.cpu.dcache.WriteReq_miss_latency::total  55793167191                       # number of WriteReq miss cycles
system.cpu.dcache.WriteReq_accesses::.cpu.data    122219447                       # number of WriteReq accesses(hits+misses)
system.cpu.dcache.WriteReq_accesses::.switch_cpus.data      5674175                       # number of WriteReq accesses(hits+misses)
system.cpu.dcache.WriteReq_accesses::.switch_cpus_1.data     28482236                       # number of WriteReq accesses(hits+misses)
system.cpu.dcache.WriteReq_accesses::total    156375858                       # number of WriteReq accesses(hits+misses)
system.cpu.dcache.WriteReq_miss_rate::.cpu.data     0.125747                       # miss rate for WriteReq accesses
system.cpu.dcache.WriteReq_miss_rate::.switch_cpus.data     0.027565                       # miss rate for WriteReq accesses
system.cpu.dcache.WriteReq_miss_rate::.switch_cpus_1.data     0.023096                       # miss rate for WriteReq accesses
system.cpu.dcache.WriteReq_miss_rate::total     0.103487                       # miss rate for WriteReq accesses
system.cpu.dcache.WriteReq_avg_miss_latency::.switch_cpus.data 56014.833096                       # average WriteReq miss latency
system.cpu.dcache.WriteReq_avg_miss_latency::.switch_cpus_1.data 71496.845932                       # average WriteReq miss latency
system.cpu.dcache.WriteReq_avg_miss_latency::total  3447.654408                       # average WriteReq miss latency
system.cpu.dcache.WriteReq_mshr_misses::.switch_cpus.data       156407                       # number of WriteReq MSHR misses
system.cpu.dcache.WriteReq_mshr_misses::.switch_cpus_1.data       657820                       # number of WriteReq MSHR misses
system.cpu.dcache.WriteReq_mshr_misses::total       814227                       # number of WriteReq MSHR misses
system.cpu.dcache.WriteReq_mshr_miss_latency::.switch_cpus.data   8604705000                       # number of WriteReq MSHR miss cycles
system.cpu.dcache.WriteReq_mshr_miss_latency::.switch_cpus_1.data  46374235191                       # number of WriteReq MSHR miss cycles
system.cpu.dcache.WriteReq_mshr_miss_latency::total  54978940191                       # number of WriteReq MSHR miss cycles
system.cpu.dcache.WriteReq_mshr_miss_rate::.switch_cpus.data     0.027565                       # mshr miss rate for WriteReq accesses
system.cpu.dcache.WriteReq_mshr_miss_rate::.switch_cpus_1.data     0.023096                       # mshr miss rate for WriteReq accesses
system.cpu.dcache.WriteReq_mshr_miss_rate::total     0.005207                       # mshr miss rate for WriteReq accesses
system.cpu.dcache.WriteReq_avg_mshr_miss_latency::.switch_cpus.data 55014.833096                       # average WriteReq mshr miss latency
system.cpu.dcache.WriteReq_avg_mshr_miss_latency::.switch_cpus_1.data 70496.845932                       # average WriteReq mshr miss latency
system.cpu.dcache.WriteReq_avg_mshr_miss_latency::total 67522.865480                       # average WriteReq mshr miss latency
system.cpu.dcache.power_state.pwrStateResidencyTicks::UNDEFINED 1368820677500                       # Cumulative time (in ticks) in various power states
system.cpu.dcache.tags.tagsinuse           511.991971                       # Cycle average of tags in use
system.cpu.dcache.tags.total_refs           569908901                       # Total number of references to valid blocks.
system.cpu.dcache.tags.sampled_refs          26788102                       # Sample count of references to valid blocks.
system.cpu.dcache.tags.avg_refs             21.274703                       # Average number of references to valid blocks.
system.cpu.dcache.tags.warmup_cycle              1500                       # Cycle when the warmup percentage was hit.
system.cpu.dcache.tags.occ_blocks::.cpu.data   403.919491                       # Average occupied blocks per requestor
system.cpu.dcache.tags.occ_blocks::.switch_cpus.data    56.753997                       # Average occupied blocks per requestor
system.cpu.dcache.tags.occ_blocks::.switch_cpus_1.data    51.318483                       # Average occupied blocks per requestor
system.cpu.dcache.tags.occ_percent::.cpu.data     0.788905                       # Average percentage of cache occupancy
system.cpu.dcache.tags.occ_percent::.switch_cpus.data     0.110848                       # Average percentage of cache occupancy
system.cpu.dcache.tags.occ_percent::.switch_cpus_1.data     0.100231                       # Average percentage of cache occupancy
system.cpu.dcache.tags.occ_percent::total     0.999984                       # Average percentage of cache occupancy
system.cpu.dcache.tags.occ_task_id_blocks::1024          512                       # Occupied blocks per task id
system.cpu.dcache.tags.age_task_id_blocks_1024::0          141                       # Occupied blocks per task id
system.cpu.dcache.tags.age_task_id_blocks_1024::1          338                       # Occupied blocks per task id
system.cpu.dcache.tags.age_task_id_blocks_1024::2           32                       # Occupied blocks per task id
system.cpu.dcache.tags.age_task_id_blocks_1024::3            1                       # Occupied blocks per task id
system.cpu.dcache.tags.occ_task_id_percent::1024            1                       # Percentage of cache occupancy per task id
system.cpu.dcache.tags.tag_accesses        2309539470                       # Number of tag accesses
system.cpu.dcache.tags.data_accesses       2309539470                       # Number of data accesses
system.cpu.dcache.tags.power_state.pwrStateResidencyTicks::UNDEFINED 1368820677500                       # Cumulative time (in ticks) in various power states
system.cpu.power_state.numTransitions               2                       # Number of power state transitions
system.cpu.power_state.pwrStateResidencyTicks::ON 1078753153500                       # Cumulative time (in ticks) in various power states
system.cpu.power_state.pwrStateResidencyTicks::OFF 290067524000                       # Cumulative time (in ticks) in various power states

---------- End Simulation Statistics   ----------
