
---------- Begin Simulation Statistics ----------
final_tick                               1348534295000                       # Number of ticks from beginning of simulation (restored from checkpoints and never reset)
host_inst_rate                                 294313                       # Simulator instruction rate (inst/s)
host_mem_usage                                4541388                       # Number of bytes of host memory used
host_op_rate                                   498658                       # Simulator op (including micro ops) rate (op/s)
host_seconds                                  4417.06                       # Real time elapsed on the host
host_tick_rate                               47748604                       # Simulator tick rate (ticks/s)
sim_freq                                 1000000000000                       # Frequency of simulated ticks
sim_insts                                  1300000006                       # Number of instructions simulated
sim_ops                                    2202605300                       # Number of ops (including micro ops) simulated
sim_seconds                                  0.210909                       # Number of seconds simulated
sim_ticks                                210908560250                       # Number of ticks simulated
system.cpu.committedInsts                           0                       # Number of instructions committed
system.cpu.committedOps                             0                       # Number of ops (including micro ops) committed
system.cpu.dtb.rdAccesses                           0                       # TLB accesses on read requests
system.cpu.dtb.rdMisses                             0                       # TLB misses on read requests
system.cpu.dtb.wrAccesses                           0                       # TLB accesses on write requests
system.cpu.dtb.wrMisses                             0                       # TLB misses on write requests
system.cpu.idle_fraction                            0                       # Percentage of idle cycles
system.cpu.itb.rdAccesses                           0                       # TLB accesses on read requests
system.cpu.itb.rdMisses                             0                       # TLB misses on read requests
system.cpu.itb.wrAccesses                           0                       # TLB accesses on write requests
system.cpu.itb.wrMisses                             0                       # TLB misses on write requests
system.cpu.not_idle_fraction                        1                       # Percentage of non-idle cycles
system.cpu.numCycles                                0                       # number of cpu cycles simulated
system.cpu.numWorkItemsCompleted                    0                       # number of work items this cpu completed
system.cpu.numWorkItemsStarted                      0                       # number of work items this cpu started
system.cpu.num_busy_cycles                          0                       # Number of busy cycles
system.cpu.num_conditional_control_insts            0                       # number of instructions that are conditional controls
system.cpu.num_fp_alu_accesses                      0                       # Number of float alu accesses
system.cpu.num_fp_insts                             0                       # number of float instructions
system.cpu.num_fp_register_reads                    0                       # number of times the floating registers were read
system.cpu.num_fp_register_writes                   0                       # number of times the floating registers were written
system.cpu.num_func_calls                           0                       # number of times a function call or return occured
system.cpu.num_idle_cycles                          0                       # Number of idle cycles
system.cpu.num_int_alu_accesses                     0                       # Number of integer alu accesses
system.cpu.num_int_insts                            0                       # number of integer instructions
system.cpu.num_int_register_reads                   0                       # number of times the integer registers were read
system.cpu.num_int_register_writes                  0                       # number of times the integer registers were written
system.cpu.num_load_insts                           0                       # Number of load instructions
system.cpu.num_mem_refs                             0                       # number of memory refs
system.cpu.num_store_insts                          0                       # Number of store instructions
system.cpu.num_vec_alu_accesses                     0                       # Number of vector alu accesses
system.cpu.num_vec_insts                            0                       # number of vector instructions
system.cpu.num_vec_register_reads                   0                       # number of times the vector registers were read
system.cpu.num_vec_register_writes                  0                       # number of times the vector registers were written
system.cpu.op_class::No_OpClass                     0                       # Class of executed instruction
system.cpu.op_class::IntAlu                         0                       # Class of executed instruction
system.cpu.op_class::IntMult                        0                       # Class of executed instruction
system.cpu.op_class::IntDiv                         0                       # Class of executed instruction
system.cpu.op_class::FloatAdd                       0                       # Class of executed instruction
system.cpu.op_class::FloatCmp                       0                       # Class of executed instruction
system.cpu.op_class::FloatCvt                       0                       # Class of executed instruction
system.cpu.op_class::FloatMult                      0                       # Class of executed instruction
system.cpu.op_class::FloatMultAcc                   0                       # Class of executed instruction
system.cpu.op_class::FloatDiv                       0                       # Class of executed instruction
system.cpu.op_class::FloatMisc                      0                       # Class of executed instruction
system.cpu.op_class::FloatSqrt                      0                       # Class of executed instruction
system.cpu.op_class::SimdAdd                        0                       # Class of executed instruction
system.cpu.op_class::SimdAddAcc                     0                       # Class of executed instruction
system.cpu.op_class::SimdAlu                        0                       # Class of executed instruction
system.cpu.op_class::SimdCmp                        0                       # Class of executed instruction
system.cpu.op_class::SimdCvt                        0                       # Class of executed instruction
system.cpu.op_class::SimdMisc                       0                       # Class of executed instruction
system.cpu.op_class::SimdMult                       0                       # Class of executed instruction
system.cpu.op_class::SimdMultAcc                    0                       # Class of executed instruction
system.cpu.op_class::SimdShift                      0                       # Class of executed instruction
system.cpu.op_class::SimdShiftAcc                   0                       # Class of executed instruction
system.cpu.op_class::SimdDiv                        0                       # Class of executed instruction
system.cpu.op_class::SimdSqrt                       0                       # Class of executed instruction
system.cpu.op_class::SimdFloatAdd                   0                       # Class of executed instruction
system.cpu.op_class::SimdFloatAlu                   0                       # Class of executed instruction
system.cpu.op_class::SimdFloatCmp                   0                       # Class of executed instruction
system.cpu.op_class::SimdFloatCvt                   0                       # Class of executed instruction
system.cpu.op_class::SimdFloatDiv                   0                       # Class of executed instruction
system.cpu.op_class::SimdFloatMisc                  0                       # Class of executed instruction
system.cpu.op_class::SimdFloatMult                  0                       # Class of executed instruction
system.cpu.op_class::SimdFloatMultAcc               0                       # Class of executed instruction
system.cpu.op_class::SimdFloatSqrt                  0                       # Class of executed instruction
system.cpu.op_class::SimdReduceAdd                  0                       # Class of executed instruction
system.cpu.op_class::SimdReduceAlu                  0                       # Class of executed instruction
system.cpu.op_class::SimdReduceCmp                  0                       # Class of executed instruction
system.cpu.op_class::SimdFloatReduceAdd             0                       # Class of executed instruction
system.cpu.op_class::SimdFloatReduceCmp             0                       # Class of executed instruction
system.cpu.op_class::SimdAes                        0                       # Class of executed instruction
system.cpu.op_class::SimdAesMix                     0                       # Class of executed instruction
system.cpu.op_class::SimdSha1Hash                   0                       # Class of executed instruction
system.cpu.op_class::SimdSha1Hash2                  0                       # Class of executed instruction
system.cpu.op_class::SimdSha256Hash                 0                       # Class of executed instruction
system.cpu.op_class::SimdSha256Hash2                0                       # Class of executed instruction
system.cpu.op_class::SimdShaSigma2                  0                       # Class of executed instruction
system.cpu.op_class::SimdShaSigma3                  0                       # Class of executed instruction
system.cpu.op_class::SimdPredAlu                    0                       # Class of executed instruction
system.cpu.op_class::MemRead                        0                       # Class of executed instruction
system.cpu.op_class::MemWrite                       0                       # Class of executed instruction
system.cpu.op_class::FloatMemRead                   0                       # Class of executed instruction
system.cpu.op_class::FloatMemWrite                  0                       # Class of executed instruction
system.cpu.op_class::IprAccess                      0                       # Class of executed instruction
system.cpu.op_class::InstPrefetch                   0                       # Class of executed instruction
system.cpu.op_class::total                          0                       # Class of executed instruction
system.cpu.workload.numSyscalls                     0                       # Number of system calls
system.membus.snoop_filter.hit_multi_requests            0                       # Number of requests hitting in the snoop filter with multiple (>1) holders of the requested data.
system.membus.snoop_filter.hit_multi_snoops            0                       # Number of snoops hitting in the snoop filter with multiple (>1) holders of the requested data.
system.membus.snoop_filter.hit_single_requests       519245                       # Number of requests hitting in the snoop filter with a single holder of the requested data.
system.membus.snoop_filter.hit_single_snoops            0                       # Number of snoops hitting in the snoop filter with a single holder of the requested data.
system.membus.snoop_filter.tot_requests       1037202                       # Total number of requests made to the snoop filter.
system.membus.snoop_filter.tot_snoops               0                       # Total number of snoops made to the snoop filter.
system.switch_cpus.committedInsts                   0                       # Number of instructions committed
system.switch_cpus.committedOps                     0                       # Number of ops (including micro ops) committed
system.switch_cpus.dtb.rdAccesses                   0                       # TLB accesses on read requests
system.switch_cpus.dtb.rdMisses                     0                       # TLB misses on read requests
system.switch_cpus.dtb.wrAccesses                   0                       # TLB accesses on write requests
system.switch_cpus.dtb.wrMisses                     0                       # TLB misses on write requests
system.switch_cpus.idle_fraction                    0                       # Percentage of idle cycles
system.switch_cpus.itb.rdAccesses                   0                       # TLB accesses on read requests
system.switch_cpus.itb.rdMisses                     0                       # TLB misses on read requests
system.switch_cpus.itb.wrAccesses                   0                       # TLB accesses on write requests
system.switch_cpus.itb.wrMisses                     0                       # TLB misses on write requests
system.switch_cpus.not_idle_fraction                1                       # Percentage of non-idle cycles
system.switch_cpus.numCycles                        0                       # number of cpu cycles simulated
system.switch_cpus.numWorkItemsCompleted            0                       # number of work items this cpu completed
system.switch_cpus.numWorkItemsStarted              0                       # number of work items this cpu started
system.switch_cpus.num_busy_cycles                  0                       # Number of busy cycles
system.switch_cpus.num_conditional_control_insts            0                       # number of instructions that are conditional controls
system.switch_cpus.num_fp_alu_accesses              0                       # Number of float alu accesses
system.switch_cpus.num_fp_insts                     0                       # number of float instructions
system.switch_cpus.num_fp_register_reads            0                       # number of times the floating registers were read
system.switch_cpus.num_fp_register_writes            0                       # number of times the floating registers were written
system.switch_cpus.num_func_calls                   0                       # number of times a function call or return occured
system.switch_cpus.num_idle_cycles                  0                       # Number of idle cycles
system.switch_cpus.num_int_alu_accesses             0                       # Number of integer alu accesses
system.switch_cpus.num_int_insts                    0                       # number of integer instructions
system.switch_cpus.num_int_register_reads            0                       # number of times the integer registers were read
system.switch_cpus.num_int_register_writes            0                       # number of times the integer registers were written
system.switch_cpus.num_load_insts                   0                       # Number of load instructions
system.switch_cpus.num_mem_refs                     0                       # number of memory refs
system.switch_cpus.num_store_insts                  0                       # Number of store instructions
system.switch_cpus.num_vec_alu_accesses             0                       # Number of vector alu accesses
system.switch_cpus.num_vec_insts                    0                       # number of vector instructions
system.switch_cpus.num_vec_register_reads            0                       # number of times the vector registers were read
system.switch_cpus.num_vec_register_writes            0                       # number of times the vector registers were written
system.switch_cpus.op_class::No_OpClass             0                       # Class of executed instruction
system.switch_cpus.op_class::IntAlu                 0                       # Class of executed instruction
system.switch_cpus.op_class::IntMult                0                       # Class of executed instruction
system.switch_cpus.op_class::IntDiv                 0                       # Class of executed instruction
system.switch_cpus.op_class::FloatAdd               0                       # Class of executed instruction
system.switch_cpus.op_class::FloatCmp               0                       # Class of executed instruction
system.switch_cpus.op_class::FloatCvt               0                       # Class of executed instruction
system.switch_cpus.op_class::FloatMult              0                       # Class of executed instruction
system.switch_cpus.op_class::FloatMultAcc            0                       # Class of executed instruction
system.switch_cpus.op_class::FloatDiv               0                       # Class of executed instruction
system.switch_cpus.op_class::FloatMisc              0                       # Class of executed instruction
system.switch_cpus.op_class::FloatSqrt              0                       # Class of executed instruction
system.switch_cpus.op_class::SimdAdd                0                       # Class of executed instruction
system.switch_cpus.op_class::SimdAddAcc             0                       # Class of executed instruction
system.switch_cpus.op_class::SimdAlu                0                       # Class of executed instruction
system.switch_cpus.op_class::SimdCmp                0                       # Class of executed instruction
system.switch_cpus.op_class::SimdCvt                0                       # Class of executed instruction
system.switch_cpus.op_class::SimdMisc               0                       # Class of executed instruction
system.switch_cpus.op_class::SimdMult               0                       # Class of executed instruction
system.switch_cpus.op_class::SimdMultAcc            0                       # Class of executed instruction
system.switch_cpus.op_class::SimdShift              0                       # Class of executed instruction
system.switch_cpus.op_class::SimdShiftAcc            0                       # Class of executed instruction
system.switch_cpus.op_class::SimdDiv                0                       # Class of executed instruction
system.switch_cpus.op_class::SimdSqrt               0                       # Class of executed instruction
system.switch_cpus.op_class::SimdFloatAdd            0                       # Class of executed instruction
system.switch_cpus.op_class::SimdFloatAlu            0                       # Class of executed instruction
system.switch_cpus.op_class::SimdFloatCmp            0                       # Class of executed instruction
system.switch_cpus.op_class::SimdFloatCvt            0                       # Class of executed instruction
system.switch_cpus.op_class::SimdFloatDiv            0                       # Class of executed instruction
system.switch_cpus.op_class::SimdFloatMisc            0                       # Class of executed instruction
system.switch_cpus.op_class::SimdFloatMult            0                       # Class of executed instruction
system.switch_cpus.op_class::SimdFloatMultAcc            0                       # Class of executed instruction
system.switch_cpus.op_class::SimdFloatSqrt            0                       # Class of executed instruction
system.switch_cpus.op_class::SimdReduceAdd            0                       # Class of executed instruction
system.switch_cpus.op_class::SimdReduceAlu            0                       # Class of executed instruction
system.switch_cpus.op_class::SimdReduceCmp            0                       # Class of executed instruction
system.switch_cpus.op_class::SimdFloatReduceAdd            0                       # Class of executed instruction
system.switch_cpus.op_class::SimdFloatReduceCmp            0                       # Class of executed instruction
system.switch_cpus.op_class::SimdAes                0                       # Class of executed instruction
system.switch_cpus.op_class::SimdAesMix             0                       # Class of executed instruction
system.switch_cpus.op_class::SimdSha1Hash            0                       # Class of executed instruction
system.switch_cpus.op_class::SimdSha1Hash2            0                       # Class of executed instruction
system.switch_cpus.op_class::SimdSha256Hash            0                       # Class of executed instruction
system.switch_cpus.op_class::SimdSha256Hash2            0                       # Class of executed instruction
system.switch_cpus.op_class::SimdShaSigma2            0                       # Class of executed instruction
system.switch_cpus.op_class::SimdShaSigma3            0                       # Class of executed instruction
system.switch_cpus.op_class::SimdPredAlu            0                       # Class of executed instruction
system.switch_cpus.op_class::MemRead                0                       # Class of executed instruction
system.switch_cpus.op_class::MemWrite               0                       # Class of executed instruction
system.switch_cpus.op_class::FloatMemRead            0                       # Class of executed instruction
system.switch_cpus.op_class::FloatMemWrite            0                       # Class of executed instruction
system.switch_cpus.op_class::IprAccess              0                       # Class of executed instruction
system.switch_cpus.op_class::InstPrefetch            0                       # Class of executed instruction
system.switch_cpus.op_class::total                  0                       # Class of executed instruction
system.switch_cpus_1.branchPred.BTBCorrect            0                       # Number of correct BTB predictions (this stat may not work properly.
system.switch_cpus_1.branchPred.BTBHitPct          nan                       # BTB Hit Percentage
system.switch_cpus_1.branchPred.BTBHits             0                       # Number of BTB hits
system.switch_cpus_1.branchPred.BTBLookups            0                       # Number of BTB lookups
system.switch_cpus_1.branchPred.RASInCorrect           15                       # Number of incorrect RAS predictions.
system.switch_cpus_1.branchPred.condIncorrect      8245660                       # Number of conditional branches incorrect
system.switch_cpus_1.branchPred.condPredicted     84536599                       # Number of conditional branches predicted
system.switch_cpus_1.branchPred.indirectHits     29472116                       # Number of indirect target hits.
system.switch_cpus_1.branchPred.indirectLookups     50964028                       # Number of indirect predictor lookups.
system.switch_cpus_1.branchPred.indirectMisses     21491912                       # Number of indirect misses.
system.switch_cpus_1.branchPred.lookups      91957060                       # Number of BP lookups
system.switch_cpus_1.branchPred.usedRAS       2628981                       # Number of times the RAS was used to get a target.
system.switch_cpus_1.branchPredindirectMispredicted      4770975                       # Number of mispredicted indirect branches.
system.switch_cpus_1.cc_regfile_reads       259109892                       # number of cc regfile reads
system.switch_cpus_1.cc_regfile_writes      226027519                       # number of cc regfile writes
system.switch_cpus_1.commit.amos                    0                       # Number of atomic instructions committed
system.switch_cpus_1.commit.branchMispredicts      8245934                       # The number of times a branch was mispredicted
system.switch_cpus_1.commit.branches         39490397                       # Number of branches committed
system.switch_cpus_1.commit.bw_lim_events     23062951                       # number cycles where commit BW limit reached
system.switch_cpus_1.commit.commitSquashedInsts    331510349                       # The number of squashed insts skipped by commit
system.switch_cpus_1.commit.committedInsts    250000004                       # Number of instructions committed
system.switch_cpus_1.commit.committedOps    421666921                       # Number of ops (including micro ops) committed
system.switch_cpus_1.commit.committed_per_cycle::samples    372814535                       # Number of insts commited each cycle
system.switch_cpus_1.commit.committed_per_cycle::mean     1.131037                       # Number of insts commited each cycle
system.switch_cpus_1.commit.committed_per_cycle::stdev     2.176464                       # Number of insts commited each cycle
system.switch_cpus_1.commit.committed_per_cycle::underflows            0      0.00%      0.00% # Number of insts commited each cycle
system.switch_cpus_1.commit.committed_per_cycle::0    240683212     64.56%     64.56% # Number of insts commited each cycle
system.switch_cpus_1.commit.committed_per_cycle::1     54011504     14.49%     79.05% # Number of insts commited each cycle
system.switch_cpus_1.commit.committed_per_cycle::2     17404859      4.67%     83.71% # Number of insts commited each cycle
system.switch_cpus_1.commit.committed_per_cycle::3     19145023      5.14%     88.85% # Number of insts commited each cycle
system.switch_cpus_1.commit.committed_per_cycle::4     10099925      2.71%     91.56% # Number of insts commited each cycle
system.switch_cpus_1.commit.committed_per_cycle::5      2939917      0.79%     92.35% # Number of insts commited each cycle
system.switch_cpus_1.commit.committed_per_cycle::6      2462271      0.66%     93.01% # Number of insts commited each cycle
system.switch_cpus_1.commit.committed_per_cycle::7      3004873      0.81%     93.81% # Number of insts commited each cycle
system.switch_cpus_1.commit.committed_per_cycle::8     23062951      6.19%    100.00% # Number of insts commited each cycle
system.switch_cpus_1.commit.committed_per_cycle::overflows            0      0.00%    100.00% # Number of insts commited each cycle
system.switch_cpus_1.commit.committed_per_cycle::min_value            0                       # Number of insts commited each cycle
system.switch_cpus_1.commit.committed_per_cycle::max_value            8                       # Number of insts commited each cycle
system.switch_cpus_1.commit.committed_per_cycle::total    372814535                       # Number of insts commited each cycle
system.switch_cpus_1.commit.fp_insts                0                       # Number of committed floating point instructions.
system.switch_cpus_1.commit.function_calls      1582587                       # Number of function calls committed.
system.switch_cpus_1.commit.int_insts       421288658                       # Number of committed integer instructions.
system.switch_cpus_1.commit.loads            79739108                       # Number of loads committed
system.switch_cpus_1.commit.membars                 0                       # Number of memory barriers committed
system.switch_cpus_1.commit.op_class_0::No_OpClass       378162      0.09%      0.09% # Class of committed instruction
system.switch_cpus_1.commit.op_class_0::IntAlu    318830191     75.61%     75.70% # Class of committed instruction
system.switch_cpus_1.commit.op_class_0::IntMult           65      0.00%     75.70% # Class of committed instruction
system.switch_cpus_1.commit.op_class_0::IntDiv          135      0.00%     75.70% # Class of committed instruction
system.switch_cpus_1.commit.op_class_0::FloatAdd            0      0.00%     75.70% # Class of committed instruction
system.switch_cpus_1.commit.op_class_0::FloatCmp            0      0.00%     75.70% # Class of committed instruction
system.switch_cpus_1.commit.op_class_0::FloatCvt            0      0.00%     75.70% # Class of committed instruction
system.switch_cpus_1.commit.op_class_0::FloatMult            0      0.00%     75.70% # Class of committed instruction
system.switch_cpus_1.commit.op_class_0::FloatMultAcc            0      0.00%     75.70% # Class of committed instruction
system.switch_cpus_1.commit.op_class_0::FloatDiv            0      0.00%     75.70% # Class of committed instruction
system.switch_cpus_1.commit.op_class_0::FloatMisc            0      0.00%     75.70% # Class of committed instruction
system.switch_cpus_1.commit.op_class_0::FloatSqrt            0      0.00%     75.70% # Class of committed instruction
system.switch_cpus_1.commit.op_class_0::SimdAdd            0      0.00%     75.70% # Class of committed instruction
system.switch_cpus_1.commit.op_class_0::SimdAddAcc            0      0.00%     75.70% # Class of committed instruction
system.switch_cpus_1.commit.op_class_0::SimdAlu            0      0.00%     75.70% # Class of committed instruction
system.switch_cpus_1.commit.op_class_0::SimdCmp            0      0.00%     75.70% # Class of committed instruction
system.switch_cpus_1.commit.op_class_0::SimdCvt            0      0.00%     75.70% # Class of committed instruction
system.switch_cpus_1.commit.op_class_0::SimdMisc            0      0.00%     75.70% # Class of committed instruction
system.switch_cpus_1.commit.op_class_0::SimdMult            0      0.00%     75.70% # Class of committed instruction
system.switch_cpus_1.commit.op_class_0::SimdMultAcc            0      0.00%     75.70% # Class of committed instruction
system.switch_cpus_1.commit.op_class_0::SimdShift            0      0.00%     75.70% # Class of committed instruction
system.switch_cpus_1.commit.op_class_0::SimdShiftAcc            0      0.00%     75.70% # Class of committed instruction
system.switch_cpus_1.commit.op_class_0::SimdDiv            0      0.00%     75.70% # Class of committed instruction
system.switch_cpus_1.commit.op_class_0::SimdSqrt            0      0.00%     75.70% # Class of committed instruction
system.switch_cpus_1.commit.op_class_0::SimdFloatAdd            0      0.00%     75.70% # Class of committed instruction
system.switch_cpus_1.commit.op_class_0::SimdFloatAlu            0      0.00%     75.70% # Class of committed instruction
system.switch_cpus_1.commit.op_class_0::SimdFloatCmp            0      0.00%     75.70% # Class of committed instruction
system.switch_cpus_1.commit.op_class_0::SimdFloatCvt            0      0.00%     75.70% # Class of committed instruction
system.switch_cpus_1.commit.op_class_0::SimdFloatDiv            0      0.00%     75.70% # Class of committed instruction
system.switch_cpus_1.commit.op_class_0::SimdFloatMisc            0      0.00%     75.70% # Class of committed instruction
system.switch_cpus_1.commit.op_class_0::SimdFloatMult            0      0.00%     75.70% # Class of committed instruction
system.switch_cpus_1.commit.op_class_0::SimdFloatMultAcc            0      0.00%     75.70% # Class of committed instruction
system.switch_cpus_1.commit.op_class_0::SimdFloatSqrt            0      0.00%     75.70% # Class of committed instruction
system.switch_cpus_1.commit.op_class_0::SimdReduceAdd            0      0.00%     75.70% # Class of committed instruction
system.switch_cpus_1.commit.op_class_0::SimdReduceAlu            0      0.00%     75.70% # Class of committed instruction
system.switch_cpus_1.commit.op_class_0::SimdReduceCmp            0      0.00%     75.70% # Class of committed instruction
system.switch_cpus_1.commit.op_class_0::SimdFloatReduceAdd            0      0.00%     75.70% # Class of committed instruction
system.switch_cpus_1.commit.op_class_0::SimdFloatReduceCmp            0      0.00%     75.70% # Class of committed instruction
system.switch_cpus_1.commit.op_class_0::SimdAes            0      0.00%     75.70% # Class of committed instruction
system.switch_cpus_1.commit.op_class_0::SimdAesMix            0      0.00%     75.70% # Class of committed instruction
system.switch_cpus_1.commit.op_class_0::SimdSha1Hash            0      0.00%     75.70% # Class of committed instruction
system.switch_cpus_1.commit.op_class_0::SimdSha1Hash2            0      0.00%     75.70% # Class of committed instruction
system.switch_cpus_1.commit.op_class_0::SimdSha256Hash            0      0.00%     75.70% # Class of committed instruction
system.switch_cpus_1.commit.op_class_0::SimdSha256Hash2            0      0.00%     75.70% # Class of committed instruction
system.switch_cpus_1.commit.op_class_0::SimdShaSigma2            0      0.00%     75.70% # Class of committed instruction
system.switch_cpus_1.commit.op_class_0::SimdShaSigma3            0      0.00%     75.70% # Class of committed instruction
system.switch_cpus_1.commit.op_class_0::SimdPredAlu            0      0.00%     75.70% # Class of committed instruction
system.switch_cpus_1.commit.op_class_0::MemRead     79739108     18.91%     94.61% # Class of committed instruction
system.switch_cpus_1.commit.op_class_0::MemWrite     22719260      5.39%    100.00% # Class of committed instruction
system.switch_cpus_1.commit.op_class_0::FloatMemRead            0      0.00%    100.00% # Class of committed instruction
system.switch_cpus_1.commit.op_class_0::FloatMemWrite            0      0.00%    100.00% # Class of committed instruction
system.switch_cpus_1.commit.op_class_0::IprAccess            0      0.00%    100.00% # Class of committed instruction
system.switch_cpus_1.commit.op_class_0::InstPrefetch            0      0.00%    100.00% # Class of committed instruction
system.switch_cpus_1.commit.op_class_0::total    421666921                       # Class of committed instruction
system.switch_cpus_1.commit.refs            102458368                       # Number of memory references committed
system.switch_cpus_1.commit.swp_count               0                       # Number of s/w prefetches committed
system.switch_cpus_1.commit.vec_insts               0                       # Number of committed Vector instructions.
system.switch_cpus_1.committedInsts         250000004                       # Number of Instructions Simulated
system.switch_cpus_1.committedOps           421666921                       # Number of Ops (including micro ops) Simulated
system.switch_cpus_1.cpi                     1.687268                       # CPI: Cycles Per Instruction
system.switch_cpus_1.cpi_total               1.687268                       # CPI: Total CPI of All Threads
system.switch_cpus_1.decode.BlockedCycles    240229305                       # Number of cycles decode is blocked
system.switch_cpus_1.decode.DecodedInsts    872829610                       # Number of instructions handled by decode
system.switch_cpus_1.decode.IdleCycles       50173940                       # Number of cycles decode is idle
system.switch_cpus_1.decode.RunCycles       100045795                       # Number of cycles decode is running
system.switch_cpus_1.decode.SquashCycles      8269265                       # Number of cycles decode is squashing
system.switch_cpus_1.decode.UnblockCycles     23089554                       # Number of cycles decode is unblocking
system.switch_cpus_1.dtb.rdAccesses         115442879                       # TLB accesses on read requests
system.switch_cpus_1.dtb.rdMisses             1248037                       # TLB misses on read requests
system.switch_cpus_1.dtb.wrAccesses          30028476                       # TLB accesses on write requests
system.switch_cpus_1.dtb.wrMisses              362925                       # TLB misses on write requests
system.switch_cpus_1.fetch.Branches          91957060                       # Number of branches that fetch encountered
system.switch_cpus_1.fetch.CacheLines        63686804                       # Number of cache lines fetched
system.switch_cpus_1.fetch.Cycles           344578772                       # Number of cycles fetch has run and was not squashing or blocked
system.switch_cpus_1.fetch.IcacheSquashes      1885349                       # Number of outstanding Icache misses that were squashed
system.switch_cpus_1.fetch.Insts            576303612                       # Number of instructions fetch has processed
system.switch_cpus_1.fetch.MiscStallCycles          271                       # Number of cycles fetch has spent waiting on interrupts, or bad addresses, or out of MSHRs
system.switch_cpus_1.fetch.PendingTrapStallCycles         5465                       # Number of stall cycles due to pending traps
system.switch_cpus_1.fetch.SquashCycles      16538530                       # Number of cycles fetch has spent squashing
system.switch_cpus_1.fetch.branchRate        0.218002                       # Number of branch fetches per cycle
system.switch_cpus_1.fetch.icacheStallCycles     68954097                       # Number of cycles fetch is stalled on an Icache miss
system.switch_cpus_1.fetch.predictedBranches     32101097                       # Number of branches that fetch has predicted taken
system.switch_cpus_1.fetch.rate              1.366240                       # Number of inst fetches per cycle
system.switch_cpus_1.fetch.rateDist::samples    421807870                       # Number of instructions fetched each cycle (Total)
system.switch_cpus_1.fetch.rateDist::mean     2.264784                       # Number of instructions fetched each cycle (Total)
system.switch_cpus_1.fetch.rateDist::stdev     3.319035                       # Number of instructions fetched each cycle (Total)
system.switch_cpus_1.fetch.rateDist::underflows            0      0.00%      0.00% # Number of instructions fetched each cycle (Total)
system.switch_cpus_1.fetch.rateDist::0      267345951     63.38%     63.38% # Number of instructions fetched each cycle (Total)
system.switch_cpus_1.fetch.rateDist::1        8663092      2.05%     65.43% # Number of instructions fetched each cycle (Total)
system.switch_cpus_1.fetch.rateDist::2       12896382      3.06%     68.49% # Number of instructions fetched each cycle (Total)
system.switch_cpus_1.fetch.rateDist::3        9030883      2.14%     70.63% # Number of instructions fetched each cycle (Total)
system.switch_cpus_1.fetch.rateDist::4        8446824      2.00%     72.64% # Number of instructions fetched each cycle (Total)
system.switch_cpus_1.fetch.rateDist::5       14039872      3.33%     75.96% # Number of instructions fetched each cycle (Total)
system.switch_cpus_1.fetch.rateDist::6        6770987      1.61%     77.57% # Number of instructions fetched each cycle (Total)
system.switch_cpus_1.fetch.rateDist::7        7768580      1.84%     79.41% # Number of instructions fetched each cycle (Total)
system.switch_cpus_1.fetch.rateDist::8       86845299     20.59%    100.00% # Number of instructions fetched each cycle (Total)
system.switch_cpus_1.fetch.rateDist::overflows            0      0.00%    100.00% # Number of instructions fetched each cycle (Total)
system.switch_cpus_1.fetch.rateDist::min_value            0                       # Number of instructions fetched each cycle (Total)
system.switch_cpus_1.fetch.rateDist::max_value            8                       # Number of instructions fetched each cycle (Total)
system.switch_cpus_1.fetch.rateDist::total    421807870                       # Number of instructions fetched each cycle (Total)
system.switch_cpus_1.fp_regfile_reads          121622                       # number of floating regfile reads
system.switch_cpus_1.fp_regfile_writes          78333                       # number of floating regfile writes
system.switch_cpus_1.idleCycles                  9250                       # Total number of cycles that the CPU has spent unscheduled due to idling
system.switch_cpus_1.iew.branchMispredicts      9899801                       # Number of branch mispredicts detected at execute
system.switch_cpus_1.iew.exec_branches       52108684                       # Number of branches executed
system.switch_cpus_1.iew.exec_nop                   0                       # number of nop insts executed
system.switch_cpus_1.iew.exec_rate           1.482672                       # Inst execution rate
system.switch_cpus_1.iew.exec_refs          148680526                       # number of memory reference insts executed
system.switch_cpus_1.iew.exec_stores         30025479                       # Number of stores executed
system.switch_cpus_1.iew.exec_swp                   0                       # number of swp insts executed
system.switch_cpus_1.iew.iewBlockCycles      64536919                       # Number of cycles IEW is blocking
system.switch_cpus_1.iew.iewDispLoadInsts    142039915                       # Number of dispatched load instructions
system.switch_cpus_1.iew.iewDispNonSpecInsts            0                       # Number of dispatched non-speculative instructions
system.switch_cpus_1.iew.iewDispSquashedInsts       702973                       # Number of squashed instructions skipped by dispatch
system.switch_cpus_1.iew.iewDispStoreInsts     44295822                       # Number of dispatched store instructions
system.switch_cpus_1.iew.iewDispatchedInsts    753067110                       # Number of instructions dispatched to IQ
system.switch_cpus_1.iew.iewExecLoadInsts    118655047                       # Number of load instructions executed
system.switch_cpus_1.iew.iewExecSquashedInsts     20188489                       # Number of squashed instructions skipped in execute
system.switch_cpus_1.iew.iewExecutedInsts    625416356                       # Number of executed instructions
system.switch_cpus_1.iew.iewIQFullEvents       632366                       # Number of times the IQ has become full, causing a stall
system.switch_cpus_1.iew.iewIdleCycles              0                       # Number of cycles IEW is idle
system.switch_cpus_1.iew.iewLSQFullEvents     29762210                       # Number of times the LSQ has become full, causing a stall
system.switch_cpus_1.iew.iewSquashCycles      8269265                       # Number of cycles IEW is squashing
system.switch_cpus_1.iew.iewUnblockCycles     30983106                       # Number of cycles IEW is unblocking
system.switch_cpus_1.iew.lsq.thread0.blockedLoads            0                       # Number of blocked loads due to partial load-store forwarding
system.switch_cpus_1.iew.lsq.thread0.cacheBlocked       997745                       # Number of times an access to memory failed due to the cache being blocked
system.switch_cpus_1.iew.lsq.thread0.forwLoads      8280948                       # Number of loads that had data forwarded from stores
system.switch_cpus_1.iew.lsq.thread0.ignoredResponses        43176                       # Number of memory responses ignored because the instruction is squashed
system.switch_cpus_1.iew.lsq.thread0.invAddrLoads            0                       # Number of loads ignored due to an invalid address
system.switch_cpus_1.iew.lsq.thread0.invAddrSwpfs            0                       # Number of software prefetches ignored due to an invalid address
system.switch_cpus_1.iew.lsq.thread0.memOrderViolation        29460                       # Number of memory ordering violations
system.switch_cpus_1.iew.lsq.thread0.rescheduledLoads        53578                       # Number of loads that were rescheduled
system.switch_cpus_1.iew.lsq.thread0.squashedLoads     62300803                       # Number of loads squashed
system.switch_cpus_1.iew.lsq.thread0.squashedStores     21576560                       # Number of stores squashed
system.switch_cpus_1.iew.memOrderViolationEvents        29460                       # Number of memory order violations
system.switch_cpus_1.iew.predictedNotTakenIncorrect      8851868                       # Number of branches that were predicted not taken incorrectly
system.switch_cpus_1.iew.predictedTakenIncorrect      1047933                       # Number of branches that were predicted taken incorrectly
system.switch_cpus_1.iew.wb_consumers       704218109                       # num instructions consuming a value
system.switch_cpus_1.iew.wb_count           608995062                       # cumulative count of insts written-back
system.switch_cpus_1.iew.wb_fanout           0.666321                       # average fanout of values written-back
system.switch_cpus_1.iew.wb_producers       469235323                       # num instructions producing a value
system.switch_cpus_1.iew.wb_rate             1.443742                       # insts written-back per cycle
system.switch_cpus_1.iew.wb_sent            613015927                       # cumulative count of insts sent to commit
system.switch_cpus_1.int_regfile_reads      976029554                       # number of integer regfile reads
system.switch_cpus_1.int_regfile_writes     528615437                       # number of integer regfile writes
system.switch_cpus_1.ipc                     0.592674                       # IPC: Instructions Per Cycle
system.switch_cpus_1.ipc_total               0.592674                       # IPC: Total IPC of All Threads
system.switch_cpus_1.iq.FU_type_0::No_OpClass      1625601      0.25%      0.25% # Type of FU issued
system.switch_cpus_1.iq.FU_type_0::IntAlu    487584912     75.52%     75.78% # Type of FU issued
system.switch_cpus_1.iq.FU_type_0::IntMult           86      0.00%     75.78% # Type of FU issued
system.switch_cpus_1.iq.FU_type_0::IntDiv          135      0.00%     75.78% # Type of FU issued
system.switch_cpus_1.iq.FU_type_0::FloatAdd            0      0.00%     75.78% # Type of FU issued
system.switch_cpus_1.iq.FU_type_0::FloatCmp            0      0.00%     75.78% # Type of FU issued
system.switch_cpus_1.iq.FU_type_0::FloatCvt         6227      0.00%     75.78% # Type of FU issued
system.switch_cpus_1.iq.FU_type_0::FloatMult            0      0.00%     75.78% # Type of FU issued
system.switch_cpus_1.iq.FU_type_0::FloatMultAcc            0      0.00%     75.78% # Type of FU issued
system.switch_cpus_1.iq.FU_type_0::FloatDiv            0      0.00%     75.78% # Type of FU issued
system.switch_cpus_1.iq.FU_type_0::FloatMisc            0      0.00%     75.78% # Type of FU issued
system.switch_cpus_1.iq.FU_type_0::FloatSqrt            0      0.00%     75.78% # Type of FU issued
system.switch_cpus_1.iq.FU_type_0::SimdAdd            0      0.00%     75.78% # Type of FU issued
system.switch_cpus_1.iq.FU_type_0::SimdAddAcc            0      0.00%     75.78% # Type of FU issued
system.switch_cpus_1.iq.FU_type_0::SimdAlu            0      0.00%     75.78% # Type of FU issued
system.switch_cpus_1.iq.FU_type_0::SimdCmp            0      0.00%     75.78% # Type of FU issued
system.switch_cpus_1.iq.FU_type_0::SimdCvt            0      0.00%     75.78% # Type of FU issued
system.switch_cpus_1.iq.FU_type_0::SimdMisc       104400      0.02%     75.79% # Type of FU issued
system.switch_cpus_1.iq.FU_type_0::SimdMult            0      0.00%     75.79% # Type of FU issued
system.switch_cpus_1.iq.FU_type_0::SimdMultAcc            0      0.00%     75.79% # Type of FU issued
system.switch_cpus_1.iq.FU_type_0::SimdShift            0      0.00%     75.79% # Type of FU issued
system.switch_cpus_1.iq.FU_type_0::SimdShiftAcc            0      0.00%     75.79% # Type of FU issued
system.switch_cpus_1.iq.FU_type_0::SimdDiv            0      0.00%     75.79% # Type of FU issued
system.switch_cpus_1.iq.FU_type_0::SimdSqrt            0      0.00%     75.79% # Type of FU issued
system.switch_cpus_1.iq.FU_type_0::SimdFloatAdd            0      0.00%     75.79% # Type of FU issued
system.switch_cpus_1.iq.FU_type_0::SimdFloatAlu            0      0.00%     75.79% # Type of FU issued
system.switch_cpus_1.iq.FU_type_0::SimdFloatCmp            0      0.00%     75.79% # Type of FU issued
system.switch_cpus_1.iq.FU_type_0::SimdFloatCvt        39882      0.01%     75.80% # Type of FU issued
system.switch_cpus_1.iq.FU_type_0::SimdFloatDiv            0      0.00%     75.80% # Type of FU issued
system.switch_cpus_1.iq.FU_type_0::SimdFloatMisc            0      0.00%     75.80% # Type of FU issued
system.switch_cpus_1.iq.FU_type_0::SimdFloatMult            0      0.00%     75.80% # Type of FU issued
system.switch_cpus_1.iq.FU_type_0::SimdFloatMultAcc            0      0.00%     75.80% # Type of FU issued
system.switch_cpus_1.iq.FU_type_0::SimdFloatSqrt            0      0.00%     75.80% # Type of FU issued
system.switch_cpus_1.iq.FU_type_0::SimdReduceAdd            0      0.00%     75.80% # Type of FU issued
system.switch_cpus_1.iq.FU_type_0::SimdReduceAlu            0      0.00%     75.80% # Type of FU issued
system.switch_cpus_1.iq.FU_type_0::SimdReduceCmp            0      0.00%     75.80% # Type of FU issued
system.switch_cpus_1.iq.FU_type_0::SimdFloatReduceAdd            0      0.00%     75.80% # Type of FU issued
system.switch_cpus_1.iq.FU_type_0::SimdFloatReduceCmp            0      0.00%     75.80% # Type of FU issued
system.switch_cpus_1.iq.FU_type_0::SimdAes            0      0.00%     75.80% # Type of FU issued
system.switch_cpus_1.iq.FU_type_0::SimdAesMix            0      0.00%     75.80% # Type of FU issued
system.switch_cpus_1.iq.FU_type_0::SimdSha1Hash            0      0.00%     75.80% # Type of FU issued
system.switch_cpus_1.iq.FU_type_0::SimdSha1Hash2            0      0.00%     75.80% # Type of FU issued
system.switch_cpus_1.iq.FU_type_0::SimdSha256Hash            0      0.00%     75.80% # Type of FU issued
system.switch_cpus_1.iq.FU_type_0::SimdSha256Hash2            0      0.00%     75.80% # Type of FU issued
system.switch_cpus_1.iq.FU_type_0::SimdShaSigma2            0      0.00%     75.80% # Type of FU issued
system.switch_cpus_1.iq.FU_type_0::SimdShaSigma3            0      0.00%     75.80% # Type of FU issued
system.switch_cpus_1.iq.FU_type_0::SimdPredAlu            0      0.00%     75.80% # Type of FU issued
system.switch_cpus_1.iq.FU_type_0::MemRead    124587945     19.30%     95.10% # Type of FU issued
system.switch_cpus_1.iq.FU_type_0::MemWrite     31655658      4.90%    100.00% # Type of FU issued
system.switch_cpus_1.iq.FU_type_0::FloatMemRead            0      0.00%    100.00% # Type of FU issued
system.switch_cpus_1.iq.FU_type_0::FloatMemWrite            0      0.00%    100.00% # Type of FU issued
system.switch_cpus_1.iq.FU_type_0::IprAccess            0      0.00%    100.00% # Type of FU issued
system.switch_cpus_1.iq.FU_type_0::InstPrefetch            0      0.00%    100.00% # Type of FU issued
system.switch_cpus_1.iq.FU_type_0::total    645604846                       # Type of FU issued
system.switch_cpus_1.iq.fp_alu_accesses        150512                       # Number of floating point alu accesses
system.switch_cpus_1.iq.fp_inst_queue_reads       304629                       # Number of floating instruction queue reads
system.switch_cpus_1.iq.fp_inst_queue_wakeup_accesses        84145                       # Number of floating instruction queue wakeup accesses
system.switch_cpus_1.iq.fp_inst_queue_writes       797258                       # Number of floating instruction queue writes
system.switch_cpus_1.iq.fu_busy_cnt           6398136                       # FU busy when requested
system.switch_cpus_1.iq.fu_busy_rate         0.009910                       # FU busy rate (busy events/executed inst)
system.switch_cpus_1.iq.fu_full::No_OpClass            0      0.00%      0.00% # attempts to use FU when none available
system.switch_cpus_1.iq.fu_full::IntAlu       4531459     70.82%     70.82% # attempts to use FU when none available
system.switch_cpus_1.iq.fu_full::IntMult            0      0.00%     70.82% # attempts to use FU when none available
system.switch_cpus_1.iq.fu_full::IntDiv             0      0.00%     70.82% # attempts to use FU when none available
system.switch_cpus_1.iq.fu_full::FloatAdd            0      0.00%     70.82% # attempts to use FU when none available
system.switch_cpus_1.iq.fu_full::FloatCmp            0      0.00%     70.82% # attempts to use FU when none available
system.switch_cpus_1.iq.fu_full::FloatCvt            3      0.00%     70.82% # attempts to use FU when none available
system.switch_cpus_1.iq.fu_full::FloatMult            0      0.00%     70.82% # attempts to use FU when none available
system.switch_cpus_1.iq.fu_full::FloatMultAcc            0      0.00%     70.82% # attempts to use FU when none available
system.switch_cpus_1.iq.fu_full::FloatDiv            0      0.00%     70.82% # attempts to use FU when none available
system.switch_cpus_1.iq.fu_full::FloatMisc            0      0.00%     70.82% # attempts to use FU when none available
system.switch_cpus_1.iq.fu_full::FloatSqrt            0      0.00%     70.82% # attempts to use FU when none available
system.switch_cpus_1.iq.fu_full::SimdAdd            0      0.00%     70.82% # attempts to use FU when none available
system.switch_cpus_1.iq.fu_full::SimdAddAcc            0      0.00%     70.82% # attempts to use FU when none available
system.switch_cpus_1.iq.fu_full::SimdAlu            0      0.00%     70.82% # attempts to use FU when none available
system.switch_cpus_1.iq.fu_full::SimdCmp            0      0.00%     70.82% # attempts to use FU when none available
system.switch_cpus_1.iq.fu_full::SimdCvt            0      0.00%     70.82% # attempts to use FU when none available
system.switch_cpus_1.iq.fu_full::SimdMisc            0      0.00%     70.82% # attempts to use FU when none available
system.switch_cpus_1.iq.fu_full::SimdMult            0      0.00%     70.82% # attempts to use FU when none available
system.switch_cpus_1.iq.fu_full::SimdMultAcc            0      0.00%     70.82% # attempts to use FU when none available
system.switch_cpus_1.iq.fu_full::SimdShift            0      0.00%     70.82% # attempts to use FU when none available
system.switch_cpus_1.iq.fu_full::SimdShiftAcc            0      0.00%     70.82% # attempts to use FU when none available
system.switch_cpus_1.iq.fu_full::SimdDiv            0      0.00%     70.82% # attempts to use FU when none available
system.switch_cpus_1.iq.fu_full::SimdSqrt            0      0.00%     70.82% # attempts to use FU when none available
system.switch_cpus_1.iq.fu_full::SimdFloatAdd            0      0.00%     70.82% # attempts to use FU when none available
system.switch_cpus_1.iq.fu_full::SimdFloatAlu            0      0.00%     70.82% # attempts to use FU when none available
system.switch_cpus_1.iq.fu_full::SimdFloatCmp            0      0.00%     70.82% # attempts to use FU when none available
system.switch_cpus_1.iq.fu_full::SimdFloatCvt            0      0.00%     70.82% # attempts to use FU when none available
system.switch_cpus_1.iq.fu_full::SimdFloatDiv            0      0.00%     70.82% # attempts to use FU when none available
system.switch_cpus_1.iq.fu_full::SimdFloatMisc            0      0.00%     70.82% # attempts to use FU when none available
system.switch_cpus_1.iq.fu_full::SimdFloatMult            0      0.00%     70.82% # attempts to use FU when none available
system.switch_cpus_1.iq.fu_full::SimdFloatMultAcc            0      0.00%     70.82% # attempts to use FU when none available
system.switch_cpus_1.iq.fu_full::SimdFloatSqrt            0      0.00%     70.82% # attempts to use FU when none available
system.switch_cpus_1.iq.fu_full::SimdReduceAdd            0      0.00%     70.82% # attempts to use FU when none available
system.switch_cpus_1.iq.fu_full::SimdReduceAlu            0      0.00%     70.82% # attempts to use FU when none available
system.switch_cpus_1.iq.fu_full::SimdReduceCmp            0      0.00%     70.82% # attempts to use FU when none available
system.switch_cpus_1.iq.fu_full::SimdFloatReduceAdd            0      0.00%     70.82% # attempts to use FU when none available
system.switch_cpus_1.iq.fu_full::SimdFloatReduceCmp            0      0.00%     70.82% # attempts to use FU when none available
system.switch_cpus_1.iq.fu_full::SimdAes            0      0.00%     70.82% # attempts to use FU when none available
system.switch_cpus_1.iq.fu_full::SimdAesMix            0      0.00%     70.82% # attempts to use FU when none available
system.switch_cpus_1.iq.fu_full::SimdSha1Hash            0      0.00%     70.82% # attempts to use FU when none available
system.switch_cpus_1.iq.fu_full::SimdSha1Hash2            0      0.00%     70.82% # attempts to use FU when none available
system.switch_cpus_1.iq.fu_full::SimdSha256Hash            0      0.00%     70.82% # attempts to use FU when none available
system.switch_cpus_1.iq.fu_full::SimdSha256Hash2            0      0.00%     70.82% # attempts to use FU when none available
system.switch_cpus_1.iq.fu_full::SimdShaSigma2            0      0.00%     70.82% # attempts to use FU when none available
system.switch_cpus_1.iq.fu_full::SimdShaSigma3            0      0.00%     70.82% # attempts to use FU when none available
system.switch_cpus_1.iq.fu_full::SimdPredAlu            0      0.00%     70.82% # attempts to use FU when none available
system.switch_cpus_1.iq.fu_full::MemRead      1837100     28.71%     99.54% # attempts to use FU when none available
system.switch_cpus_1.iq.fu_full::MemWrite        29574      0.46%    100.00% # attempts to use FU when none available
system.switch_cpus_1.iq.fu_full::FloatMemRead            0      0.00%    100.00% # attempts to use FU when none available
system.switch_cpus_1.iq.fu_full::FloatMemWrite            0      0.00%    100.00% # attempts to use FU when none available
system.switch_cpus_1.iq.fu_full::IprAccess            0      0.00%    100.00% # attempts to use FU when none available
system.switch_cpus_1.iq.fu_full::InstPrefetch            0      0.00%    100.00% # attempts to use FU when none available
system.switch_cpus_1.iq.int_alu_accesses    650226869                       # Number of integer alu accesses
system.switch_cpus_1.iq.int_inst_queue_reads   1720616470                       # Number of integer instruction queue reads
system.switch_cpus_1.iq.int_inst_queue_wakeup_accesses    608910917                       # Number of integer instruction queue wakeup accesses
system.switch_cpus_1.iq.int_inst_queue_writes   1083697626                       # Number of integer instruction queue writes
system.switch_cpus_1.iq.iqInstsAdded        753067110                       # Number of instructions added to the IQ (excludes non-spec)
system.switch_cpus_1.iq.iqInstsIssued       645604846                       # Number of instructions issued
system.switch_cpus_1.iq.iqSquashedInstsExamined    331400170                       # Number of squashed instructions iterated over during squash; mainly for profiling
system.switch_cpus_1.iq.iqSquashedInstsIssued      1505402                       # Number of squashed instructions issued
system.switch_cpus_1.iq.iqSquashedOperandsExamined    478064996                       # Number of squashed operands that are examined and possibly removed from graph
system.switch_cpus_1.iq.issued_per_cycle::samples    421807870                       # Number of insts issued each cycle
system.switch_cpus_1.iq.issued_per_cycle::mean     1.530566                       # Number of insts issued each cycle
system.switch_cpus_1.iq.issued_per_cycle::stdev     2.113790                       # Number of insts issued each cycle
system.switch_cpus_1.iq.issued_per_cycle::underflows            0      0.00%      0.00% # Number of insts issued each cycle
system.switch_cpus_1.iq.issued_per_cycle::0    225517257     53.46%     53.46% # Number of insts issued each cycle
system.switch_cpus_1.iq.issued_per_cycle::1     45735344     10.84%     64.31% # Number of insts issued each cycle
system.switch_cpus_1.iq.issued_per_cycle::2     38944598      9.23%     73.54% # Number of insts issued each cycle
system.switch_cpus_1.iq.issued_per_cycle::3     29622734      7.02%     80.56% # Number of insts issued each cycle
system.switch_cpus_1.iq.issued_per_cycle::4     27191375      6.45%     87.01% # Number of insts issued each cycle
system.switch_cpus_1.iq.issued_per_cycle::5     22838018      5.41%     92.42% # Number of insts issued each cycle
system.switch_cpus_1.iq.issued_per_cycle::6     18012333      4.27%     96.69% # Number of insts issued each cycle
system.switch_cpus_1.iq.issued_per_cycle::7      9487172      2.25%     98.94% # Number of insts issued each cycle
system.switch_cpus_1.iq.issued_per_cycle::8      4459039      1.06%    100.00% # Number of insts issued each cycle
system.switch_cpus_1.iq.issued_per_cycle::overflows            0      0.00%    100.00% # Number of insts issued each cycle
system.switch_cpus_1.iq.issued_per_cycle::min_value            0                       # Number of insts issued each cycle
system.switch_cpus_1.iq.issued_per_cycle::max_value            8                       # Number of insts issued each cycle
system.switch_cpus_1.iq.issued_per_cycle::total    421807870                       # Number of insts issued each cycle
system.switch_cpus_1.iq.rate                 1.530533                       # Inst issue rate
system.switch_cpus_1.iq.vec_alu_accesses            0                       # Number of vector alu accesses
system.switch_cpus_1.iq.vec_inst_queue_reads            0                       # Number of vector instruction queue reads
system.switch_cpus_1.iq.vec_inst_queue_wakeup_accesses            0                       # Number of vector instruction queue wakeup accesses
system.switch_cpus_1.iq.vec_inst_queue_writes            0                       # Number of vector instruction queue writes
system.switch_cpus_1.itb.rdAccesses                 0                       # TLB accesses on read requests
system.switch_cpus_1.itb.rdMisses                   0                       # TLB misses on read requests
system.switch_cpus_1.itb.wrAccesses          63687186                       # TLB accesses on write requests
system.switch_cpus_1.itb.wrMisses                 396                       # TLB misses on write requests
system.switch_cpus_1.memDep0.conflictingLoads     20923157                       # Number of conflicting loads.
system.switch_cpus_1.memDep0.conflictingStores     13742134                       # Number of conflicting stores.
system.switch_cpus_1.memDep0.insertedLoads    142039915                       # Number of loads inserted to the mem dependence unit.
system.switch_cpus_1.memDep0.insertedStores     44295822                       # Number of stores inserted to the mem dependence unit.
system.switch_cpus_1.misc_regfile_reads     267768270                       # number of misc regfile reads
system.switch_cpus_1.numCycles              421817120                       # number of cpu cycles simulated
system.switch_cpus_1.numWorkItemsCompleted            0                       # number of work items this cpu completed
system.switch_cpus_1.numWorkItemsStarted            0                       # number of work items this cpu started
system.switch_cpus_1.rename.BlockCycles     140919775                       # Number of cycles rename is blocking
system.switch_cpus_1.rename.CommittedMaps    530265411                       # Number of HB maps that are committed
system.switch_cpus_1.rename.IQFullEvents     32973414                       # Number of times rename has blocked due to IQ full
system.switch_cpus_1.rename.IdleCycles       62097322                       # Number of cycles rename is idle
system.switch_cpus_1.rename.LQFullEvents     12541053                       # Number of times rename has blocked due to LQ full
system.switch_cpus_1.rename.ROBFullEvents      4147125                       # Number of times rename has blocked due to ROB full
system.switch_cpus_1.rename.RenameLookups   2139057755                       # Number of register rename lookups that rename has made
system.switch_cpus_1.rename.RenamedInsts    830137852                       # Number of instructions processed by rename
system.switch_cpus_1.rename.RenamedOperands   1005418041                       # Number of destination operands rename has renamed
system.switch_cpus_1.rename.RunCycles       109093510                       # Number of cycles rename is running
system.switch_cpus_1.rename.SQFullEvents     48759978                       # Number of times rename has blocked due to SQ full
system.switch_cpus_1.rename.SquashCycles      8269265                       # Number of cycles rename is squashing
system.switch_cpus_1.rename.UnblockCycles    101427988                       # Number of cycles rename is unblocking
system.switch_cpus_1.rename.UndoneMaps      475152593                       # Number of HB maps that are undone due to squashing
system.switch_cpus_1.rename.fp_rename_lookups      2222820                       # Number of floating rename lookups
system.switch_cpus_1.rename.int_rename_lookups   1376957338                       # Number of integer rename lookups
system.switch_cpus_1.rename.serializeStallCycles            0                       # count of cycles rename stalled for serializing inst
system.switch_cpus_1.rename.serializingInsts            0                       # count of serializing insts renamed
system.switch_cpus_1.rename.skidInsts       107954169                       # count of insts added to the skid buffer
system.switch_cpus_1.rename.tempSerializingInsts            0                       # count of temporary serializing insts renamed
system.switch_cpus_1.rob.rob_reads         1102928854                       # The number of ROB reads
system.switch_cpus_1.rob.rob_writes        1556049866                       # The number of ROB writes
system.switch_cpus_1.timesIdled                    76                       # Number of times that the entire CPU went into an idle state and unscheduled itself
system.tol2bus.snoop_filter.hit_multi_requests            0                       # Number of requests hitting in the snoop filter with multiple (>1) holders of the requested data.
system.tol2bus.snoop_filter.hit_multi_snoops            0                       # Number of snoops hitting in the snoop filter with multiple (>1) holders of the requested data.
system.tol2bus.snoop_filter.hit_single_requests      4650275                       # Number of requests hitting in the snoop filter with a single holder of the requested data.
system.tol2bus.snoop_filter.hit_single_snoops        51291                       # Number of snoops hitting in the snoop filter with a single holder of the requested data.
system.tol2bus.snoop_filter.tot_requests      9172505                       # Total number of requests made to the snoop filter.
system.tol2bus.snoop_filter.tot_snoops          51291                       # Total number of snoops made to the snoop filter.
system.tol3bus.snoop_filter.hit_multi_requests            0                       # Number of requests hitting in the snoop filter with multiple (>1) holders of the requested data.
system.tol3bus.snoop_filter.hit_multi_snoops            0                       # Number of snoops hitting in the snoop filter with multiple (>1) holders of the requested data.
system.tol3bus.snoop_filter.hit_single_requests      4010208                       # Number of requests hitting in the snoop filter with a single holder of the requested data.
system.tol3bus.snoop_filter.hit_single_snoops       247213                       # Number of snoops hitting in the snoop filter with a single holder of the requested data.
system.tol3bus.snoop_filter.tot_requests      7991175                       # Total number of requests made to the snoop filter.
system.tol3bus.snoop_filter.tot_snoops         247213                       # Total number of snoops made to the snoop filter.
system.membus.trans_dist::ReadResp             269799                       # Transaction distribution
system.membus.trans_dist::WritebackDirty       323165                       # Transaction distribution
system.membus.trans_dist::CleanEvict           196022                       # Transaction distribution
system.membus.trans_dist::UpgradeReq               58                       # Transaction distribution
system.membus.trans_dist::ReadExReq            248158                       # Transaction distribution
system.membus.trans_dist::ReadExResp           248158                       # Transaction distribution
system.membus.trans_dist::ReadSharedReq        269799                       # Transaction distribution
system.membus.pkt_count_system.l3.mem_side::system.mem_ctrls.port      1555159                       # Packet count per connected master and slave (bytes)
system.membus.pkt_count_system.l3.mem_side::total      1555159                       # Packet count per connected master and slave (bytes)
system.membus.pkt_count::total                1555159                       # Packet count per connected master and slave (bytes)
system.membus.pkt_size_system.l3.mem_side::system.mem_ctrls.port     53831808                       # Cumulative packet size per connected master and slave (bytes)
system.membus.pkt_size_system.l3.mem_side::total     53831808                       # Cumulative packet size per connected master and slave (bytes)
system.membus.pkt_size::total                53831808                       # Cumulative packet size per connected master and slave (bytes)
system.membus.snoops                                0                       # Total snoops (count)
system.membus.snoopTraffic                          0                       # Total snoop traffic (bytes)
system.membus.snoop_fanout::samples            518015                       # Request fanout histogram
system.membus.snoop_fanout::mean                    0                       # Request fanout histogram
system.membus.snoop_fanout::stdev                   0                       # Request fanout histogram
system.membus.snoop_fanout::underflows              0      0.00%      0.00% # Request fanout histogram
system.membus.snoop_fanout::0                  518015    100.00%    100.00% # Request fanout histogram
system.membus.snoop_fanout::1                       0      0.00%    100.00% # Request fanout histogram
system.membus.snoop_fanout::overflows               0      0.00%    100.00% # Request fanout histogram
system.membus.snoop_fanout::min_value               0                       # Request fanout histogram
system.membus.snoop_fanout::max_value               0                       # Request fanout histogram
system.membus.snoop_fanout::total              518015                       # Request fanout histogram
system.membus.reqLayer2.occupancy          2502376000                       # Layer occupancy (ticks)
system.membus.reqLayer2.utilization               1.2                       # Layer utilization (%)
system.membus.respLayer1.occupancy         2809681500                       # Layer occupancy (ticks)
system.membus.respLayer1.utilization              1.3                       # Layer utilization (%)
system.membus.power_state.pwrStateResidencyTicks::UNDEFINED 1348534295000                       # Cumulative time (in ticks) in various power states
system.switch_cpus_1.dtb.walker.power_state.pwrStateResidencyTicks::UNDEFINED 1348534295000                       # Cumulative time (in ticks) in various power states
system.switch_cpus_1.itb.walker.power_state.pwrStateResidencyTicks::UNDEFINED 1348534295000                       # Cumulative time (in ticks) in various power states
system.switch_cpus_1.power_state.pwrStateResidencyTicks::OFF 1348534295000                       # Cumulative time (in ticks) in various power states
system.switch_cpus.dtb.walker.power_state.pwrStateResidencyTicks::UNDEFINED 1348534295000                       # Cumulative time (in ticks) in various power states
system.switch_cpus.itb.walker.power_state.pwrStateResidencyTicks::UNDEFINED 1348534295000                       # Cumulative time (in ticks) in various power states
system.switch_cpus.power_state.numTransitions            1                       # Number of power state transitions
system.switch_cpus.power_state.pwrStateResidencyTicks::OFF 1348534295000                       # Cumulative time (in ticks) in various power states
system.tol2bus.trans_dist::ReadResp           3702875                       # Transaction distribution
system.tol2bus.trans_dist::WritebackDirty      1573989                       # Transaction distribution
system.tol2bus.trans_dist::WritebackClean          153                       # Transaction distribution
system.tol2bus.trans_dist::CleanEvict         3822145                       # Transaction distribution
system.tol2bus.trans_dist::UpgradeReq          128045                       # Transaction distribution
system.tol2bus.trans_dist::UpgradeResp         128045                       # Transaction distribution
system.tol2bus.trans_dist::ReadExReq           819355                       # Transaction distribution
system.tol2bus.trans_dist::ReadExResp          819355                       # Transaction distribution
system.tol2bus.trans_dist::ReadCleanReq       3702875                       # Transaction distribution
system.tol2bus.pkt_count_system.cpu.icache.mem_side::system.l2.cpu_side          459                       # Packet count per connected master and slave (bytes)
system.tol2bus.pkt_count_system.cpu.dcache.mem_side::system.l2.cpu_side     13822321                       # Packet count per connected master and slave (bytes)
system.tol2bus.pkt_count::total              13822780                       # Packet count per connected master and slave (bytes)
system.tol2bus.pkt_size_system.cpu.icache.mem_side::system.l2.cpu_side        19584                       # Cumulative packet size per connected master and slave (bytes)
system.tol2bus.pkt_size_system.cpu.dcache.mem_side::system.l2.cpu_side    350038144                       # Cumulative packet size per connected master and slave (bytes)
system.tol2bus.pkt_size::total              350057728                       # Cumulative packet size per connected master and slave (bytes)
system.tol2bus.snoops                          874057                       # Total snoops (count)
system.tol2bus.snoopTraffic                  40110080                       # Total snoop traffic (bytes)
system.tol2bus.snoop_fanout::samples          5524332                       # Request fanout histogram
system.tol2bus.snoop_fanout::mean            0.009285                       # Request fanout histogram
system.tol2bus.snoop_fanout::stdev           0.095908                       # Request fanout histogram
system.tol2bus.snoop_fanout::underflows             0      0.00%      0.00% # Request fanout histogram
system.tol2bus.snoop_fanout::0                5473041     99.07%     99.07% # Request fanout histogram
system.tol2bus.snoop_fanout::1                  51291      0.93%    100.00% # Request fanout histogram
system.tol2bus.snoop_fanout::2                      0      0.00%    100.00% # Request fanout histogram
system.tol2bus.snoop_fanout::3                      0      0.00%    100.00% # Request fanout histogram
system.tol2bus.snoop_fanout::4                      0      0.00%    100.00% # Request fanout histogram
system.tol2bus.snoop_fanout::overflows              0      0.00%    100.00% # Request fanout histogram
system.tol2bus.snoop_fanout::min_value              0                       # Request fanout histogram
system.tol2bus.snoop_fanout::max_value              1                       # Request fanout histogram
system.tol2bus.snoop_fanout::total            5524332                       # Request fanout histogram
system.tol2bus.reqLayer0.occupancy         5533674500                       # Layer occupancy (ticks)
system.tol2bus.reqLayer0.utilization              2.6                       # Layer utilization (%)
system.tol2bus.respLayer1.occupancy        6847138000                       # Layer occupancy (ticks)
system.tol2bus.respLayer1.utilization             3.2                       # Layer utilization (%)
system.tol2bus.respLayer0.occupancy            229500                       # Layer occupancy (ticks)
system.tol2bus.respLayer0.utilization             0.0                       # Layer utilization (%)
system.tol2bus.power_state.pwrStateResidencyTicks::UNDEFINED 1348534295000                       # Cumulative time (in ticks) in various power states
system.voltage_domain.voltage                       1                       # Voltage in Volts
system.clk_domain.clock                          1000                       # Clock period in ticks
system.l2.demand_hits::.switch_cpus_1.inst           11                       # number of demand (read+write) hits
system.l2.demand_hits::.switch_cpus_1.data       541252                       # number of demand (read+write) hits
system.l2.demand_hits::total                   541263                       # number of demand (read+write) hits
system.l2.overall_hits::.switch_cpus_1.inst           11                       # number of overall hits
system.l2.overall_hits::.switch_cpus_1.data       541252                       # number of overall hits
system.l2.overall_hits::total                  541263                       # number of overall hits
system.l2.demand_misses::.switch_cpus_1.inst          142                       # number of demand (read+write) misses
system.l2.demand_misses::.switch_cpus_1.data      3980825                       # number of demand (read+write) misses
system.l2.demand_misses::total                3980967                       # number of demand (read+write) misses
system.l2.overall_misses::.switch_cpus_1.inst          142                       # number of overall misses
system.l2.overall_misses::.switch_cpus_1.data      3980825                       # number of overall misses
system.l2.overall_misses::total               3980967                       # number of overall misses
system.l2.demand_miss_latency::.switch_cpus_1.inst     13975000                       # number of demand (read+write) miss cycles
system.l2.demand_miss_latency::.switch_cpus_1.data 153352487500                       # number of demand (read+write) miss cycles
system.l2.demand_miss_latency::total     153366462500                       # number of demand (read+write) miss cycles
system.l2.overall_miss_latency::.switch_cpus_1.inst     13975000                       # number of overall miss cycles
system.l2.overall_miss_latency::.switch_cpus_1.data 153352487500                       # number of overall miss cycles
system.l2.overall_miss_latency::total    153366462500                       # number of overall miss cycles
system.l2.demand_accesses::.switch_cpus_1.inst          153                       # number of demand (read+write) accesses
system.l2.demand_accesses::.switch_cpus_1.data      4522077                       # number of demand (read+write) accesses
system.l2.demand_accesses::total              4522230                       # number of demand (read+write) accesses
system.l2.overall_accesses::.switch_cpus_1.inst          153                       # number of overall (read+write) accesses
system.l2.overall_accesses::.switch_cpus_1.data      4522077                       # number of overall (read+write) accesses
system.l2.overall_accesses::total             4522230                       # number of overall (read+write) accesses
system.l2.demand_miss_rate::.switch_cpus_1.inst     0.928105                       # miss rate for demand accesses
system.l2.demand_miss_rate::.switch_cpus_1.data     0.880309                       # miss rate for demand accesses
system.l2.demand_miss_rate::total            0.880311                       # miss rate for demand accesses
system.l2.overall_miss_rate::.switch_cpus_1.inst     0.928105                       # miss rate for overall accesses
system.l2.overall_miss_rate::.switch_cpus_1.data     0.880309                       # miss rate for overall accesses
system.l2.overall_miss_rate::total           0.880311                       # miss rate for overall accesses
system.l2.demand_avg_miss_latency::.switch_cpus_1.inst 98415.492958                       # average overall miss latency
[...]
system.cpu.dcache.demand_miss_latency::.switch_cpus_1.data 290139825278                       # number of demand (read+write) miss cycles
system.cpu.dcache.demand_miss_latency::total 313247710278                       # number of demand (read+write) miss cycles
system.cpu.dcache.overall_miss_latency::.switch_cpus.data  23107885000                       # number of overall miss cycles
system.cpu.dcache.overall_miss_latency::.switch_cpus_1.data 290139825278                       # number of overall miss cycles
system.cpu.dcache.overall_miss_latency::total 313247710278                       # number of overall miss cycles
system.cpu.dcache.demand_accesses::.cpu.data    433795334                       # number of demand (read+write) accesses
system.cpu.dcache.demand_accesses::.switch_cpus.data     21480199                       # number of demand (read+write) accesses
system.cpu.dcache.demand_accesses::.switch_cpus_1.data    129773564                       # number of demand (read+write) accesses
system.cpu.dcache.demand_accesses::total    585049097                       # number of demand (read+write) accesses
system.cpu.dcache.overall_accesses::.cpu.data    433795334                       # number of overall (read+write) accesses
system.cpu.dcache.overall_accesses::.switch_cpus.data     21480199                       # number of overall (read+write) accesses
system.cpu.dcache.overall_accesses::.switch_cpus_1.data    129773564                       # number of overall (read+write) accesses
system.cpu.dcache.overall_accesses::total    585049097                       # number of overall (read+write) accesses
system.cpu.dcache.demand_miss_rate::.cpu.data     0.034799                       # miss rate for demand accesses
system.cpu.dcache.demand_miss_rate::.switch_cpus.data     0.027682                       # miss rate for demand accesses
system.cpu.dcache.demand_miss_rate::.switch_cpus_1.data     0.054626                       # miss rate for demand accesses
system.cpu.dcache.demand_miss_rate::total     0.038936                       # miss rate for demand accesses
system.cpu.dcache.overall_miss_rate::.cpu.data     0.034799                       # miss rate for overall accesses
system.cpu.dcache.overall_miss_rate::.switch_cpus.data     0.027682                       # miss rate for overall accesses
system.cpu.dcache.overall_miss_rate::.switch_cpus_1.data     0.054626                       # miss rate for overall accesses
system.cpu.dcache.overall_miss_rate::total     0.038936                       # miss rate for overall accesses
system.cpu.dcache.demand_avg_miss_latency::.switch_cpus.data 38862.384966                       # average overall miss latency
system.cpu.dcache.demand_avg_miss_latency::.switch_cpus_1.data 40928.081595                       # average overall miss latency
system.cpu.dcache.demand_avg_miss_latency::total 13751.428558                       # average overall miss latency
system.cpu.dcache.overall_avg_miss_latency::.switch_cpus.data 38862.384966                       # average overall miss latency
system.cpu.dcache.overall_avg_miss_latency::.switch_cpus_1.data 40928.081595                       # average overall miss latency
system.cpu.dcache.overall_avg_miss_latency::total 13751.428558                       # average overall miss latency
system.cpu.dcache.blocked_cycles::no_mshrs     20461458                       # number of cycles access was blocked
system.cpu.dcache.blocked_cycles::no_targets          317                       # number of cycles access was blocked
system.cpu.dcache.blocked::no_mshrs           1114607                       # number of cycles access was blocked
system.cpu.dcache.blocked::no_targets               5                       # number of cycles access was blocked
system.cpu.dcache.avg_blocked_cycles::no_mshrs    18.357554                       # average number of cycles each access was blocked
system.cpu.dcache.avg_blocked_cycles::no_targets    63.400000                       # average number of cycles each access was blocked
system.cpu.dcache.writebacks::.writebacks      5575578                       # number of writebacks
system.cpu.dcache.writebacks::total           5575578                       # number of writebacks
system.cpu.dcache.demand_mshr_hits::.switch_cpus_1.data      2438903                       # number of demand (read+write) MSHR hits
system.cpu.dcache.demand_mshr_hits::total      2438903                       # number of demand (read+write) MSHR hits
system.cpu.dcache.overall_mshr_hits::.switch_cpus_1.data      2438903                       # number of overall MSHR hits
system.cpu.dcache.overall_mshr_hits::total      2438903                       # number of overall MSHR hits
system.cpu.dcache.demand_mshr_misses::.switch_cpus.data       594608                       # number of demand (read+write) MSHR misses
system.cpu.dcache.demand_mshr_misses::.switch_cpus_1.data      4650113                       # number of demand (read+write) MSHR misses
system.cpu.dcache.demand_mshr_misses::total      5244721                       # number of demand (read+write) MSHR misses
system.cpu.dcache.overall_mshr_misses::.switch_cpus.data       594608                       # number of overall MSHR misses
system.cpu.dcache.overall_mshr_misses::.switch_cpus_1.data      4650113                       # number of overall MSHR misses
system.cpu.dcache.overall_mshr_misses::total      5244721                       # number of overall MSHR misses
system.cpu.dcache.demand_mshr_miss_latency::.switch_cpus.data  22513277000                       # number of demand (read+write) MSHR miss cycles
system.cpu.dcache.demand_mshr_miss_latency::.switch_cpus_1.data 167747011278                       # number of demand (read+write) MSHR miss cycles
system.cpu.dcache.demand_mshr_miss_latency::total 190260288278                       # number of demand (read+write) MSHR miss cycles
system.cpu.dcache.overall_mshr_miss_latency::.switch_cpus.data  22513277000                       # number of overall MSHR miss cycles
system.cpu.dcache.overall_mshr_miss_latency::.switch_cpus_1.data 167747011278                       # number of overall MSHR miss cycles
system.cpu.dcache.overall_mshr_miss_latency::total 190260288278                       # number of overall MSHR miss cycles
system.cpu.dcache.demand_mshr_miss_rate::.switch_cpus.data     0.027682                       # mshr miss rate for demand accesses
system.cpu.dcache.demand_mshr_miss_rate::.switch_cpus_1.data     0.035833                       # mshr miss rate for demand accesses
system.cpu.dcache.demand_mshr_miss_rate::total     0.008965                       # mshr miss rate for demand accesses
system.cpu.dcache.overall_mshr_miss_rate::.switch_cpus.data     0.027682                       # mshr miss rate for overall accesses
system.cpu.dcache.overall_mshr_miss_rate::.switch_cpus_1.data     0.035833                       # mshr miss rate for overall accesses
system.cpu.dcache.overall_mshr_miss_rate::total     0.008965                       # mshr miss rate for overall accesses
system.cpu.dcache.demand_avg_mshr_miss_latency::.switch_cpus.data 37862.384966                       # average overall mshr miss latency
system.cpu.dcache.demand_avg_mshr_miss_latency::.switch_cpus_1.data 36073.749450                       # average overall mshr miss latency
system.cpu.dcache.demand_avg_mshr_miss_latency::total 36276.531827                       # average overall mshr miss latency
system.cpu.dcache.overall_avg_mshr_miss_latency::.switch_cpus.data 37862.384966                       # average overall mshr miss latency
system.cpu.dcache.overall_avg_mshr_miss_latency::.switch_cpus_1.data 36073.749450                       # average overall mshr miss latency
system.cpu.dcache.overall_avg_mshr_miss_latency::total 36276.531827                       # average overall mshr miss latency
system.cpu.dcache.replacements               18716359                       # number of replacements
system.cpu.dcache.ReadReq_hits::.cpu.data    311145526                       # number of ReadReq hits
system.cpu.dcache.ReadReq_hits::.switch_cpus.data     17716162                       # number of ReadReq hits
system.cpu.dcache.ReadReq_hits::.switch_cpus_1.data    100909694                       # number of ReadReq hits
system.cpu.dcache.ReadReq_hits::total       429771382                       # number of ReadReq hits
system.cpu.dcache.ReadReq_misses::.cpu.data     10610433                       # number of ReadReq misses
system.cpu.dcache.ReadReq_misses::.switch_cpus.data       451504                       # number of ReadReq misses
system.cpu.dcache.ReadReq_misses::.switch_cpus_1.data      6141616                       # number of ReadReq misses
system.cpu.dcache.ReadReq_misses::total      17203553                       # number of ReadReq misses
system.cpu.dcache.ReadReq_miss_latency::.switch_cpus.data  15659275000                       # number of ReadReq miss cycles
system.cpu.dcache.ReadReq_miss_latency::.switch_cpus_1.data 246908928500                       # number of ReadReq miss cycles
system.cpu.dcache.ReadReq_miss_latency::total 262568203500                       # number of ReadReq miss cycles
system.cpu.dcache.ReadReq_accesses::.cpu.data    321755959                       # number of ReadReq accesses(hits+misses)
system.cpu.dcache.ReadReq_accesses::.switch_cpus.data     18167666                       # number of ReadReq accesses(hits+misses)
system.cpu.dcache.ReadReq_accesses::.switch_cpus_1.data    107051310                       # number of ReadReq accesses(hits+misses)
system.cpu.dcache.ReadReq_accesses::total    446974935                       # number of ReadReq accesses(hits+misses)
system.cpu.dcache.ReadReq_miss_rate::.cpu.data     0.032977                       # miss rate for ReadReq accesses
system.cpu.dcache.ReadReq_miss_rate::.switch_cpus.data     0.024852                       # miss rate for ReadReq accesses
system.cpu.dcache.ReadReq_miss_rate::.switch_cpus_1.data     0.057371                       # miss rate for ReadReq accesses
system.cpu.dcache.ReadReq_miss_rate::total     0.038489                       # miss rate for ReadReq accesses
system.cpu.dcache.ReadReq_avg_miss_latency::.switch_cpus.data 34682.472359                       # average ReadReq miss latency
system.cpu.dcache.ReadReq_avg_miss_latency::.switch_cpus_1.data 40202.599528                       # average ReadReq miss latency
system.cpu.dcache.ReadReq_avg_miss_latency::total 15262.440468                       # average ReadReq miss latency
system.cpu.dcache.ReadReq_mshr_hits::.switch_cpus_1.data      2438894                       # number of ReadReq MSHR hits
system.cpu.dcache.ReadReq_mshr_hits::total      2438894                       # number of ReadReq MSHR hits
system.cpu.dcache.ReadReq_mshr_misses::.switch_cpus.data       451504                       # number of ReadReq MSHR misses
system.cpu.dcache.ReadReq_mshr_misses::.switch_cpus_1.data      3702722                       # number of ReadReq MSHR misses
system.cpu.dcache.ReadReq_mshr_misses::total      4154226                       # number of ReadReq MSHR misses
system.cpu.dcache.ReadReq_mshr_miss_latency::.switch_cpus.data  15207771000                       # number of ReadReq MSHR miss cycles
system.cpu.dcache.ReadReq_mshr_miss_latency::.switch_cpus_1.data 125463514500                       # number of ReadReq MSHR miss cycles
system.cpu.dcache.ReadReq_mshr_miss_latency::total 140671285500                       # number of ReadReq MSHR miss cycles
system.cpu.dcache.ReadReq_mshr_miss_rate::.switch_cpus.data     0.024852                       # mshr miss rate for ReadReq accesses
system.cpu.dcache.ReadReq_mshr_miss_rate::.switch_cpus_1.data     0.034588                       # mshr miss rate for ReadReq accesses
system.cpu.dcache.ReadReq_mshr_miss_rate::total     0.009294                       # mshr miss rate for ReadReq accesses
system.cpu.dcache.ReadReq_avg_mshr_miss_latency::.switch_cpus.data 33682.472359                       # average ReadReq mshr miss latency
system.cpu.dcache.ReadReq_avg_mshr_miss_latency::.switch_cpus_1.data 33884.130243                       # average ReadReq mshr miss latency
system.cpu.dcache.ReadReq_avg_mshr_miss_latency::total 33862.212961                       # average ReadReq mshr miss latency
system.cpu.dcache.WriteReq_hits::.cpu.data    107554147                       # number of WriteReq hits
system.cpu.dcache.WriteReq_hits::.switch_cpus.data      3169429                       # number of WriteReq hits
system.cpu.dcache.WriteReq_hits::.switch_cpus_1.data     21774854                       # number of WriteReq hits
system.cpu.dcache.WriteReq_hits::total      132498430                       # number of WriteReq hits
system.cpu.dcache.WriteReq_misses::.cpu.data      4485228                       # number of WriteReq misses
system.cpu.dcache.WriteReq_misses::.switch_cpus.data       143104                       # number of WriteReq misses
system.cpu.dcache.WriteReq_misses::.switch_cpus_1.data       947400                       # number of WriteReq misses
system.cpu.dcache.WriteReq_misses::total      5575732                       # number of WriteReq misses
system.cpu.dcache.WriteReq_miss_latency::.switch_cpus.data   7448610000                       # number of WriteReq miss cycles
system.cpu.dcache.WriteReq_miss_latency::.switch_cpus_1.data  43230896778                       # number of WriteReq miss cycles
system.cpu.dcache.WriteReq_miss_latency::total  50679506778                       # number of WriteReq miss cycles
system.cpu.dcache.WriteReq_accesses::.cpu.data    112039375                       # number of WriteReq accesses(hits+misses)
system.cpu.dcache.WriteReq_accesses::.switch_cpus.data      3312533                       # number of WriteReq accesses(hits+misses)
system.cpu.dcache.WriteReq_accesses::.switch_cpus_1.data     22722254                       # number of WriteReq accesses(hits+misses)
system.cpu.dcache.WriteReq_accesses::total    138074162                       # number of WriteReq accesses(hits+misses)
system.cpu.dcache.WriteReq_miss_rate::.cpu.data     0.040033                       # miss rate for WriteReq accesses
system.cpu.dcache.WriteReq_miss_rate::.switch_cpus.data     0.043201                       # miss rate for WriteReq accesses
system.cpu.dcache.WriteReq_miss_rate::.switch_cpus_1.data     0.041695                       # miss rate for WriteReq accesses
system.cpu.dcache.WriteReq_miss_rate::total     0.040382                       # miss rate for WriteReq accesses
system.cpu.dcache.WriteReq_avg_miss_latency::.switch_cpus.data 52050.327035                       # average WriteReq miss latency
system.cpu.dcache.WriteReq_avg_miss_latency::.switch_cpus_1.data 45631.092229                       # average WriteReq miss latency
system.cpu.dcache.WriteReq_avg_miss_latency::total  9089.301060                       # average WriteReq miss latency
system.cpu.dcache.WriteReq_mshr_hits::.switch_cpus_1.data            9                       # number of WriteReq MSHR hits
system.cpu.dcache.WriteReq_mshr_hits::total            9                       # number of WriteReq MSHR hits
system.cpu.dcache.WriteReq_mshr_misses::.switch_cpus.data       143104                       # number of WriteReq MSHR misses
system.cpu.dcache.WriteReq_mshr_misses::.switch_cpus_1.data       947391                       # number of WriteReq MSHR misses
system.cpu.dcache.WriteReq_mshr_misses::total      1090495                       # number of WriteReq MSHR misses
system.cpu.dcache.WriteReq_mshr_miss_latency::.switch_cpus.data   7305506000                       # number of WriteReq MSHR miss cycles
system.cpu.dcache.WriteReq_mshr_miss_latency::.switch_cpus_1.data  42283496778                       # number of WriteReq MSHR miss cycles
system.cpu.dcache.WriteReq_mshr_miss_latency::total  49589002778                       # number of WriteReq MSHR miss cycles
system.cpu.dcache.WriteReq_mshr_miss_rate::.switch_cpus.data     0.043201                       # mshr miss rate for WriteReq accesses
system.cpu.dcache.WriteReq_mshr_miss_rate::.switch_cpus_1.data     0.041694                       # mshr miss rate for WriteReq accesses
system.cpu.dcache.WriteReq_mshr_miss_rate::total     0.007898                       # mshr miss rate for WriteReq accesses
system.cpu.dcache.WriteReq_avg_mshr_miss_latency::.switch_cpus.data 51050.327035                       # average WriteReq mshr miss latency
system.cpu.dcache.WriteReq_avg_mshr_miss_latency::.switch_cpus_1.data 44631.516215                       # average WriteReq mshr miss latency
system.cpu.dcache.WriteReq_avg_mshr_miss_latency::total 45473.846994                       # average WriteReq mshr miss latency
system.cpu.dcache.power_state.pwrStateResidencyTicks::UNDEFINED 1348534295000                       # Cumulative time (in ticks) in various power states
system.cpu.dcache.tags.tagsinuse           511.995641                       # Cycle average of tags in use
system.cpu.dcache.tags.total_refs           582741397                       # Total number of references to valid blocks.
system.cpu.dcache.tags.sampled_refs          18716871                       # Sample count of references to valid blocks.
system.cpu.dcache.tags.avg_refs             31.134552                       # Average number of references to valid blocks.
system.cpu.dcache.tags.warmup_cycle              1500                       # Cycle when the warmup percentage was hit.
system.cpu.dcache.tags.occ_blocks::.cpu.data   389.680896                       # Average occupied blocks per requestor
system.cpu.dcache.tags.occ_blocks::.switch_cpus.data    42.242694                       # Average occupied blocks per requestor
system.cpu.dcache.tags.occ_blocks::.switch_cpus_1.data    80.072051                       # Average occupied blocks per requestor
system.cpu.dcache.tags.occ_percent::.cpu.data     0.761095                       # Average percentage of cache occupancy
system.cpu.dcache.tags.occ_percent::.switch_cpus.data     0.082505                       # Average percentage of cache occupancy
system.cpu.dcache.tags.occ_percent::.switch_cpus_1.data     0.156391                       # Average percentage of cache occupancy
system.cpu.dcache.tags.occ_percent::total     0.999991                       # Average percentage of cache occupancy
system.cpu.dcache.tags.occ_task_id_blocks::1024          512                       # Occupied blocks per task id
system.cpu.dcache.tags.age_task_id_blocks_1024::0           35                       # Occupied blocks per task id
system.cpu.dcache.tags.age_task_id_blocks_1024::1          318                       # Occupied blocks per task id
system.cpu.dcache.tags.age_task_id_blocks_1024::2          158                       # Occupied blocks per task id
system.cpu.dcache.tags.age_task_id_blocks_1024::3            1                       # Occupied blocks per task id
system.cpu.dcache.tags.occ_task_id_percent::1024            1                       # Percentage of cache occupancy per task id
system.cpu.dcache.tags.tag_accesses        2358913259                       # Number of tag accesses
system.cpu.dcache.tags.data_accesses       2358913259                       # Number of data accesses
system.cpu.dcache.tags.power_state.pwrStateResidencyTicks::UNDEFINED 1348534295000                       # Cumulative time (in ticks) in various power states
system.cpu.power_state.numTransitions               2                       # Number of power state transitions
system.cpu.power_state.pwrStateResidencyTicks::ON 1026110788500                       # Cumulative time (in ticks) in various power states
system.cpu.power_state.pwrStateResidencyTicks::OFF 322423506500                       # Cumulative time (in ticks) in various power states

---------- End Simulation Statistics   ----------
