
---------- Begin Simulation Statistics ----------
final_tick                                81825606000                       # Number of ticks from beginning of simulation (restored from checkpoints and never reset)
host_inst_rate                                 303409                       # Simulator instruction rate (inst/s)
host_mem_usage                                 858856                       # Number of bytes of host memory used
host_op_rate                                   308032                       # Simulator op (including micro ops) rate (op/s)
host_seconds                                   329.59                       # Real time elapsed on the host
host_tick_rate                              248266215                       # Simulator tick rate (ticks/s)
sim_freq                                 1000000000000                       # Frequency of simulated ticks
sim_insts                                   100000001                       # Number of instructions simulated
sim_ops                                     101523852                       # Number of ops (including micro ops) simulated
sim_seconds                                  0.081826                       # Number of seconds simulated
sim_ticks                                 81825606000                       # Number of ticks simulated
system.cpu.branchPred.BTBCorrect                    0                       # Number of correct BTB predictions (this stat may not work properly.
system.cpu.branchPred.BTBHitPct             99.991897                       # BTB Hit Percentage
system.cpu.branchPred.BTBHits                12426064                       # Number of BTB hits
system.cpu.branchPred.BTBLookups             12427071                       # Number of BTB lookups
system.cpu.branchPred.RASInCorrect                  2                       # Number of incorrect RAS predictions.
system.cpu.branchPred.condIncorrect             59468                       # Number of conditional branches incorrect
system.cpu.branchPred.condPredicted          19234896                       # Number of conditional branches predicted
system.cpu.branchPred.indirectHits                  9                       # Number of indirect target hits.
system.cpu.branchPred.indirectLookups             102                       # Number of indirect predictor lookups.
system.cpu.branchPred.indirectMisses               93                       # Number of indirect misses.
system.cpu.branchPred.lookups                19480831                       # Number of BP lookups
system.cpu.branchPred.usedRAS                  114219                       # Number of times the RAS was used to get a target.
system.cpu.branchPredindirectMispredicted           61                       # Number of mispredicted indirect branches.
system.cpu.committedInsts                   100000001                       # Number of instructions committed
system.cpu.committedOps                     101523852                       # Number of ops (including micro ops) committed
system.cpu.cpi                               1.636512                       # CPI: cycles per instruction
system.cpu.discardedOps                         19548                       # Number of ops (including micro ops) which were discarded before commit
system.cpu.dtb.accesses                             0                       # DTB accesses
system.cpu.dtb.align_faults                         0                       # Number of TLB faults due to alignment restrictions
system.cpu.dtb.domain_faults                        0                       # Number of TLB faults due to domain restrictions
system.cpu.dtb.flush_entries                        0                       # Number of entries that have been flushed from TLB
system.cpu.dtb.flush_tlb                            0                       # Number of times complete TLB was flushed
system.cpu.dtb.flush_tlb_asid                       0                       # Number of times TLB was flushed by ASID
system.cpu.dtb.flush_tlb_mva                        0                       # Number of times TLB was flushed by MVA
system.cpu.dtb.flush_tlb_mva_asid                   0                       # Number of times TLB was flushed by MVA & ASID
system.cpu.dtb.hits                                 0                       # DTB hits
system.cpu.dtb.inst_accesses                        0                       # ITB inst accesses
system.cpu.dtb.inst_hits                            0                       # ITB inst hits
system.cpu.dtb.inst_misses                          0                       # ITB inst misses
system.cpu.dtb.misses                               0                       # DTB misses
system.cpu.dtb.perms_faults                         0                       # Number of TLB faults due to permissions restrictions
system.cpu.dtb.prefetch_faults                      0                       # Number of TLB faults due to prefetch
system.cpu.dtb.read_accesses                        0                       # DTB read accesses
system.cpu.dtb.read_hits                            0                       # DTB read hits
system.cpu.dtb.read_misses                          0                       # DTB read misses
system.cpu.dtb.stage2_mmu.stage2_tlb.accesses            0                       # DTB accesses
system.cpu.dtb.stage2_mmu.stage2_tlb.align_faults            0                       # Number of TLB faults due to alignment restrictions
system.cpu.dtb.stage2_mmu.stage2_tlb.domain_faults            0                       # Number of TLB faults due to domain restrictions
system.cpu.dtb.stage2_mmu.stage2_tlb.flush_entries            0                       # Number of entries that have been flushed from TLB
system.cpu.dtb.stage2_mmu.stage2_tlb.flush_tlb            0                       # Number of times complete TLB was flushed
system.cpu.dtb.stage2_mmu.stage2_tlb.flush_tlb_asid            0                       # Number of times TLB was flushed by ASID
system.cpu.dtb.stage2_mmu.stage2_tlb.flush_tlb_mva            0                       # Number of times TLB was flushed by MVA
system.cpu.dtb.stage2_mmu.stage2_tlb.flush_tlb_mva_asid            0                       # Number of times TLB was flushed by MVA & ASID
system.cpu.dtb.stage2_mmu.stage2_tlb.hits            0                       # DTB hits
system.cpu.dtb.stage2_mmu.stage2_tlb.inst_accesses            0                       # ITB inst accesses
system.cpu.dtb.stage2_mmu.stage2_tlb.inst_hits            0                       # ITB inst hits
system.cpu.dtb.stage2_mmu.stage2_tlb.inst_misses            0                       # ITB inst misses
system.cpu.dtb.stage2_mmu.stage2_tlb.misses            0                       # DTB misses
system.cpu.dtb.stage2_mmu.stage2_tlb.perms_faults            0                       # Number of TLB faults due to permissions restrictions
system.cpu.dtb.stage2_mmu.stage2_tlb.prefetch_faults            0                       # Number of TLB faults due to prefetch
system.cpu.dtb.stage2_mmu.stage2_tlb.read_accesses            0                       # DTB read accesses
system.cpu.dtb.stage2_mmu.stage2_tlb.read_hits            0                       # DTB read hits
system.cpu.dtb.stage2_mmu.stage2_tlb.read_misses            0                       # DTB read misses
system.cpu.dtb.stage2_mmu.stage2_tlb.walker.walkRequestOrigin_Requested::Data            0                       # Table walker requests started/completed, data/inst
system.cpu.dtb.stage2_mmu.stage2_tlb.walker.walkRequestOrigin_Requested::Inst            0                       # Table walker requests started/completed, data/inst
system.cpu.dtb.stage2_mmu.stage2_tlb.walker.walkRequestOrigin_Requested::total            0                       # Table walker requests started/completed, data/inst
system.cpu.dtb.stage2_mmu.stage2_tlb.walker.walkRequestOrigin_Completed::Data            0                       # Table walker requests started/completed, data/inst
system.cpu.dtb.stage2_mmu.stage2_tlb.walker.walkRequestOrigin_Completed::Inst            0                       # Table walker requests started/completed, data/inst
system.cpu.dtb.stage2_mmu.stage2_tlb.walker.walkRequestOrigin_Completed::total            0                       # Table walker requests started/completed, data/inst
system.cpu.dtb.stage2_mmu.stage2_tlb.walker.walkRequestOrigin::total            0                       # Table walker requests started/completed, data/inst
system.cpu.dtb.stage2_mmu.stage2_tlb.walker.walks            0                       # Table walker walks requested
system.cpu.dtb.stage2_mmu.stage2_tlb.write_accesses            0                       # DTB write accesses
system.cpu.dtb.stage2_mmu.stage2_tlb.write_hits            0                       # DTB write hits
system.cpu.dtb.stage2_mmu.stage2_tlb.write_misses            0                       # DTB write misses
system.cpu.dtb.walker.walkRequestOrigin_Requested::Data            0                       # Table walker requests started/completed, data/inst
system.cpu.dtb.walker.walkRequestOrigin_Requested::Inst            0                       # Table walker requests started/completed, data/inst
system.cpu.dtb.walker.walkRequestOrigin_Requested::total            0                       # Table walker requests started/completed, data/inst
system.cpu.dtb.walker.walkRequestOrigin_Completed::Data            0                       # Table walker requests started/completed, data/inst
system.cpu.dtb.walker.walkRequestOrigin_Completed::Inst            0                       # Table walker requests started/completed, data/inst
system.cpu.dtb.walker.walkRequestOrigin_Completed::total            0                       # Table walker requests started/completed, data/inst
system.cpu.dtb.walker.walkRequestOrigin::total            0                       # Table walker requests started/completed, data/inst
system.cpu.dtb.walker.walks                         0                       # Table walker walks requested
system.cpu.dtb.write_accesses                       0                       # DTB write accesses
system.cpu.dtb.write_hits                           0                       # DTB write hits
system.cpu.dtb.write_misses                         0                       # DTB write misses
system.cpu.fetch2.amo_instructions                  0                       # Number of memory atomic instructions successfully decoded
system.cpu.fetch2.fp_instructions                   0                       # Number of floating point instructions successfully decoded
system.cpu.fetch2.int_instructions           49803197                       # Number of integer instructions successfully decoded
system.cpu.fetch2.load_instructions          25736889                       # Number of memory load instructions successfully decoded
system.cpu.fetch2.store_instructions          4502627                       # Number of memory store instructions successfully decoded
system.cpu.fetch2.vec_instructions              76039                       # Number of SIMD instructions successfully decoded
system.cpu.idleCycles                          439986                       # Total number of cycles that the object has spent stopped
system.cpu.ipc                               0.611056                       # IPC: instructions per cycle
system.cpu.itb.accesses                             0                       # DTB accesses
system.cpu.itb.align_faults                         0                       # Number of TLB faults due to alignment restrictions
system.cpu.itb.domain_faults                        0                       # Number of TLB faults due to domain restrictions
system.cpu.itb.flush_entries                        0                       # Number of entries that have been flushed from TLB
system.cpu.itb.flush_tlb                            0                       # Number of times complete TLB was flushed
system.cpu.itb.flush_tlb_asid                       0                       # Number of times TLB was flushed by ASID
system.cpu.itb.flush_tlb_mva                        0                       # Number of times TLB was flushed by MVA
system.cpu.itb.flush_tlb_mva_asid                   0                       # Number of times TLB was flushed by MVA & ASID
system.cpu.itb.hits                                 0                       # DTB hits
system.cpu.itb.inst_accesses                        0                       # ITB inst accesses
system.cpu.itb.inst_hits                            0                       # ITB inst hits
system.cpu.itb.inst_misses                          0                       # ITB inst misses
system.cpu.itb.misses                               0                       # DTB misses
system.cpu.itb.perms_faults                         0                       # Number of TLB faults due to permissions restrictions
system.cpu.itb.prefetch_faults                      0                       # Number of TLB faults due to prefetch
system.cpu.itb.read_accesses                        0                       # DTB read accesses
system.cpu.itb.read_hits                            0                       # DTB read hits
system.cpu.itb.read_misses                          0                       # DTB read misses
system.cpu.itb.stage2_mmu.stage2_tlb.accesses            0                       # DTB accesses
system.cpu.itb.stage2_mmu.stage2_tlb.align_faults            0                       # Number of TLB faults due to alignment restrictions
system.cpu.itb.stage2_mmu.stage2_tlb.domain_faults            0                       # Number of TLB faults due to domain restrictions
system.cpu.itb.stage2_mmu.stage2_tlb.flush_entries            0                       # Number of entries that have been flushed from TLB
system.cpu.itb.stage2_mmu.stage2_tlb.flush_tlb            0                       # Number of times complete TLB was flushed
system.cpu.itb.stage2_mmu.stage2_tlb.flush_tlb_asid            0                       # Number of times TLB was flushed by ASID
system.cpu.itb.stage2_mmu.stage2_tlb.flush_tlb_mva            0                       # Number of times TLB was flushed by MVA
system.cpu.itb.stage2_mmu.stage2_tlb.flush_tlb_mva_asid            0                       # Number of times TLB was flushed by MVA & ASID
system.cpu.itb.stage2_mmu.stage2_tlb.hits            0                       # DTB hits
system.cpu.itb.stage2_mmu.stage2_tlb.inst_accesses            0                       # ITB inst accesses
system.cpu.itb.stage2_mmu.stage2_tlb.inst_hits            0                       # ITB inst hits
system.cpu.itb.stage2_mmu.stage2_tlb.inst_misses            0                       # ITB inst misses
system.cpu.itb.stage2_mmu.stage2_tlb.misses            0                       # DTB misses
system.cpu.itb.stage2_mmu.stage2_tlb.perms_faults            0                       # Number of TLB faults due to permissions restrictions
system.cpu.itb.stage2_mmu.stage2_tlb.prefetch_faults            0                       # Number of TLB faults due to prefetch
system.cpu.itb.stage2_mmu.stage2_tlb.read_accesses            0                       # DTB read accesses
system.cpu.itb.stage2_mmu.stage2_tlb.read_hits            0                       # DTB read hits
system.cpu.itb.stage2_mmu.stage2_tlb.read_misses            0                       # DTB read misses
system.cpu.itb.stage2_mmu.stage2_tlb.walker.walkRequestOrigin_Requested::Data            0                       # Table walker requests started/completed, data/inst
system.cpu.itb.stage2_mmu.stage2_tlb.walker.walkRequestOrigin_Requested::Inst            0                       # Table walker requests started/completed, data/inst
system.cpu.itb.stage2_mmu.stage2_tlb.walker.walkRequestOrigin_Requested::total            0                       # Table walker requests started/completed, data/inst
system.cpu.itb.stage2_mmu.stage2_tlb.walker.walkRequestOrigin_Completed::Data            0                       # Table walker requests started/completed, data/inst
system.cpu.itb.stage2_mmu.stage2_tlb.walker.walkRequestOrigin_Completed::Inst            0                       # Table walker requests started/completed, data/inst
system.cpu.itb.stage2_mmu.stage2_tlb.walker.walkRequestOrigin_Completed::total            0                       # Table walker requests started/completed, data/inst
system.cpu.itb.stage2_mmu.stage2_tlb.walker.walkRequestOrigin::total            0                       # Table walker requests started/completed, data/inst
system.cpu.itb.stage2_mmu.stage2_tlb.walker.walks            0                       # Table walker walks requested
system.cpu.itb.stage2_mmu.stage2_tlb.write_accesses            0                       # DTB write accesses
system.cpu.itb.stage2_mmu.stage2_tlb.write_hits            0                       # DTB write hits
system.cpu.itb.stage2_mmu.stage2_tlb.write_misses            0                       # DTB write misses
system.cpu.itb.walker.walkRequestOrigin_Requested::Data            0                       # Table walker requests started/completed, data/inst
system.cpu.itb.walker.walkRequestOrigin_Requested::Inst            0                       # Table walker requests started/completed, data/inst
system.cpu.itb.walker.walkRequestOrigin_Requested::total            0                       # Table walker requests started/completed, data/inst
system.cpu.itb.walker.walkRequestOrigin_Completed::Data            0                       # Table walker requests started/completed, data/inst
system.cpu.itb.walker.walkRequestOrigin_Completed::Inst            0                       # Table walker requests started/completed, data/inst
system.cpu.itb.walker.walkRequestOrigin_Completed::total            0                       # Table walker requests started/completed, data/inst
system.cpu.itb.walker.walkRequestOrigin::total            0                       # Table walker requests started/completed, data/inst
system.cpu.itb.walker.walks                         0                       # Table walker walks requested
system.cpu.itb.write_accesses                       0                       # DTB write accesses
system.cpu.itb.write_hits                           0                       # DTB write hits
system.cpu.itb.write_misses                         0                       # DTB write misses
system.cpu.numCycles                        163651212                       # number of cpu cycles simulated
system.cpu.numFetchSuspends                         0                       # Number of times Execute suspended instruction fetching
system.cpu.numWorkItemsCompleted                    0                       # number of work items this cpu completed
system.cpu.numWorkItemsStarted                      0                       # number of work items this cpu started
system.cpu.op_class_0::No_OpClass                  10      0.00%      0.00% # Class of committed instruction
system.cpu.op_class_0::IntAlu                69620022     68.58%     68.58% # Class of committed instruction
system.cpu.op_class_0::IntMult                   6378      0.01%     68.58% # Class of committed instruction
system.cpu.op_class_0::IntDiv                     136      0.00%     68.58% # Class of committed instruction
system.cpu.op_class_0::FloatAdd                  4094      0.00%     68.59% # Class of committed instruction
system.cpu.op_class_0::FloatCmp                 16376      0.02%     68.60% # Class of committed instruction
system.cpu.op_class_0::FloatCvt                  6163      0.01%     68.61% # Class of committed instruction
system.cpu.op_class_0::FloatMult                22517      0.02%     68.63% # Class of committed instruction
system.cpu.op_class_0::FloatMultAcc             22517      0.02%     68.65% # Class of committed instruction
system.cpu.op_class_0::FloatDiv                    22      0.00%     68.65% # Class of committed instruction
system.cpu.op_class_0::FloatMisc                 2070      0.00%     68.65% # Class of committed instruction
system.cpu.op_class_0::FloatSqrt                    0      0.00%     68.65% # Class of committed instruction
system.cpu.op_class_0::SimdAdd                     32      0.00%     68.65% # Class of committed instruction
system.cpu.op_class_0::SimdAddAcc                   0      0.00%     68.65% # Class of committed instruction
system.cpu.op_class_0::SimdAlu                     37      0.00%     68.65% # Class of committed instruction
system.cpu.op_class_0::SimdCmp                     40      0.00%     68.65% # Class of committed instruction
system.cpu.op_class_0::SimdCvt                      0      0.00%     68.65% # Class of committed instruction
system.cpu.op_class_0::SimdMisc                  2082      0.00%     68.66% # Class of committed instruction
system.cpu.op_class_0::SimdMult                     0      0.00%     68.66% # Class of committed instruction
system.cpu.op_class_0::SimdMultAcc                  0      0.00%     68.66% # Class of committed instruction
system.cpu.op_class_0::SimdShift                    0      0.00%     68.66% # Class of committed instruction
system.cpu.op_class_0::SimdShiftAcc                 0      0.00%     68.66% # Class of committed instruction
system.cpu.op_class_0::SimdDiv                      0      0.00%     68.66% # Class of committed instruction
system.cpu.op_class_0::SimdSqrt                     0      0.00%     68.66% # Class of committed instruction
system.cpu.op_class_0::SimdFloatAdd                 0      0.00%     68.66% # Class of committed instruction
system.cpu.op_class_0::SimdFloatAlu                 0      0.00%     68.66% # Class of committed instruction
system.cpu.op_class_0::SimdFloatCmp                 0      0.00%     68.66% # Class of committed instruction
system.cpu.op_class_0::SimdFloatCvt                 0      0.00%     68.66% # Class of committed instruction
system.cpu.op_class_0::SimdFloatDiv                 0      0.00%     68.66% # Class of committed instruction
system.cpu.op_class_0::SimdFloatMisc                0      0.00%     68.66% # Class of committed instruction
system.cpu.op_class_0::SimdFloatMult                0      0.00%     68.66% # Class of committed instruction
system.cpu.op_class_0::SimdFloatMultAcc             0      0.00%     68.66% # Class of committed instruction
system.cpu.op_class_0::SimdFloatSqrt                0      0.00%     68.66% # Class of committed instruction
system.cpu.op_class_0::SimdReduceAdd                0      0.00%     68.66% # Class of committed instruction
system.cpu.op_class_0::SimdReduceAlu                0      0.00%     68.66% # Class of committed instruction
system.cpu.op_class_0::SimdReduceCmp                0      0.00%     68.66% # Class of committed instruction
system.cpu.op_class_0::SimdFloatReduceAdd            0      0.00%     68.66% # Class of committed instruction
system.cpu.op_class_0::SimdFloatReduceCmp            0      0.00%     68.66% # Class of committed instruction
system.cpu.op_class_0::SimdAes                      0      0.00%     68.66% # Class of committed instruction
system.cpu.op_class_0::SimdAesMix                   0      0.00%     68.66% # Class of committed instruction
system.cpu.op_class_0::SimdSha1Hash                 0      0.00%     68.66% # Class of committed instruction
system.cpu.op_class_0::SimdSha1Hash2                0      0.00%     68.66% # Class of committed instruction
system.cpu.op_class_0::SimdSha256Hash               0      0.00%     68.66% # Class of committed instruction
system.cpu.op_class_0::SimdSha256Hash2              0      0.00%     68.66% # Class of committed instruction
system.cpu.op_class_0::SimdShaSigma2                0      0.00%     68.66% # Class of committed instruction
system.cpu.op_class_0::SimdShaSigma3                0      0.00%     68.66% # Class of committed instruction
system.cpu.op_class_0::SimdPredAlu                  0      0.00%     68.66% # Class of committed instruction
system.cpu.op_class_0::MemRead               25952696     25.56%     94.22% # Class of committed instruction
system.cpu.op_class_0::MemWrite               5868660      5.78%    100.00% # Class of committed instruction
system.cpu.op_class_0::FloatMemRead                 0      0.00%    100.00% # Class of committed instruction
system.cpu.op_class_0::FloatMemWrite                0      0.00%    100.00% # Class of committed instruction
system.cpu.op_class_0::IprAccess                    0      0.00%    100.00% # Class of committed instruction
system.cpu.op_class_0::InstPrefetch                 0      0.00%    100.00% # Class of committed instruction
system.cpu.op_class_0::total                101523852                       # Class of committed instruction
system.cpu.tickCycles                       163211226                       # Number of cycles that the object actually ticked
system.cpu.workload.numSyscalls                     7                       # Number of system calls
system.membus.snoop_filter.hit_multi_requests            0                       # Number of requests hitting in the snoop filter with multiple (>1) holders of the requested data.
system.membus.snoop_filter.hit_multi_snoops            0                       # Number of snoops hitting in the snoop filter with multiple (>1) holders of the requested data.
system.membus.snoop_filter.hit_single_requests            0                       # Number of requests hitting in the snoop filter with a single holder of the requested data.
system.membus.snoop_filter.hit_single_snoops            0                       # Number of snoops hitting in the snoop filter with a single holder of the requested data.
system.membus.snoop_filter.tot_requests          2033                       # Total number of requests made to the snoop filter.
system.membus.snoop_filter.tot_snoops               0                       # Total number of snoops made to the snoop filter.
system.tol2bus.snoop_filter.hit_multi_requests            1                       # Number of requests hitting in the snoop filter with multiple (>1) holders of the requested data.
system.tol2bus.snoop_filter.hit_multi_snoops            0                       # Number of snoops hitting in the snoop filter with multiple (>1) holders of the requested data.
system.tol2bus.snoop_filter.hit_single_requests        32206                       # Number of requests hitting in the snoop filter with a single holder of the requested data.
system.tol2bus.snoop_filter.hit_single_snoops            0                       # Number of snoops hitting in the snoop filter with a single holder of the requested data.
system.tol2bus.snoop_filter.tot_requests        65688                       # Total number of requests made to the snoop filter.
system.tol2bus.snoop_filter.tot_snoops              0                       # Total number of snoops made to the snoop filter.
system.membus.trans_dist::ReadResp                787                       # Transaction distribution
system.membus.trans_dist::ReadExReq               701                       # Transaction distribution
system.membus.trans_dist::ReadExResp              701                       # Transaction distribution
system.membus.trans_dist::ReadSharedReq           787                       # Transaction distribution
system.membus.trans_dist::InvalidateReq           545                       # Transaction distribution
system.membus.pkt_count_system.l2.mem_side::system.mem_ctrls.port         3521                       # Packet count per connected master and slave (bytes)
system.membus.pkt_count::total                   3521                       # Packet count per connected master and slave (bytes)
system.membus.pkt_size_system.l2.mem_side::system.mem_ctrls.port        95232                       # Cumulative packet size per connected master and slave (bytes)
system.membus.pkt_size::total                   95232                       # Cumulative packet size per connected master and slave (bytes)
system.membus.snoops                                0                       # Total snoops (count)
system.membus.snoopTraffic                          0                       # Total snoop traffic (bytes)
system.membus.snoop_fanout::samples              2033                       # Request fanout histogram
system.membus.snoop_fanout::mean                    0                       # Request fanout histogram
system.membus.snoop_fanout::stdev                   0                       # Request fanout histogram
system.membus.snoop_fanout::underflows              0      0.00%      0.00% # Request fanout histogram
system.membus.snoop_fanout::0                    2033    100.00%    100.00% # Request fanout histogram
system.membus.snoop_fanout::1                       0      0.00%    100.00% # Request fanout histogram
system.membus.snoop_fanout::overflows               0      0.00%    100.00% # Request fanout histogram
system.membus.snoop_fanout::min_value               0                       # Request fanout histogram
system.membus.snoop_fanout::max_value               0                       # Request fanout histogram
system.membus.snoop_fanout::total                2033                       # Request fanout histogram
system.membus.reqLayer0.occupancy             2315500                       # Layer occupancy (ticks)
system.membus.reqLayer0.utilization               0.0                       # Layer utilization (%)
system.membus.respLayer1.occupancy            7901750                       # Layer occupancy (ticks)
system.membus.respLayer1.utilization              0.0                       # Layer utilization (%)
system.membus.power_state.pwrStateResidencyTicks::UNDEFINED  81825606000                       # Cumulative time (in ticks) in various power states
system.tol2bus.trans_dist::ReadResp             32027                       # Transaction distribution
system.tol2bus.trans_dist::WritebackDirty        31427                       # Transaction distribution
system.tol2bus.trans_dist::WritebackClean          697                       # Transaction distribution
system.tol2bus.trans_dist::CleanEvict              82                       # Transaction distribution
system.tol2bus.trans_dist::ReadExReq              910                       # Transaction distribution
system.tol2bus.trans_dist::ReadExResp             910                       # Transaction distribution
system.tol2bus.trans_dist::ReadCleanReq           953                       # Transaction distribution
system.tol2bus.trans_dist::ReadSharedReq        31074                       # Transaction distribution
system.tol2bus.trans_dist::InvalidateReq          545                       # Transaction distribution
system.tol2bus.trans_dist::InvalidateResp          545                       # Transaction distribution
system.tol2bus.pkt_count_system.cpu.icache.mem_side::system.l2.cpu_side         2603                       # Packet count per connected master and slave (bytes)
system.tol2bus.pkt_count_system.cpu.dcache.mem_side::system.l2.cpu_side        96567                       # Packet count per connected master and slave (bytes)
system.tol2bus.pkt_count::total                 99170                       # Packet count per connected master and slave (bytes)
system.tol2bus.pkt_size_system.cpu.icache.mem_side::system.l2.cpu_side       105600                       # Cumulative packet size per connected master and slave (bytes)
system.tol2bus.pkt_size_system.cpu.dcache.mem_side::system.l2.cpu_side      4058304                       # Cumulative packet size per connected master and slave (bytes)
system.tol2bus.pkt_size::total                4163904                       # Cumulative packet size per connected master and slave (bytes)
system.tol2bus.snoops                               0                       # Total snoops (count)
system.tol2bus.snoopTraffic                         0                       # Total snoop traffic (bytes)
system.tol2bus.snoop_fanout::samples            33482                       # Request fanout histogram
system.tol2bus.snoop_fanout::mean            0.000030                       # Request fanout histogram
system.tol2bus.snoop_fanout::stdev           0.005465                       # Request fanout histogram
system.tol2bus.snoop_fanout::underflows             0      0.00%      0.00% # Request fanout histogram
system.tol2bus.snoop_fanout::0                  33481    100.00%    100.00% # Request fanout histogram
system.tol2bus.snoop_fanout::1                      1      0.00%    100.00% # Request fanout histogram
system.tol2bus.snoop_fanout::2                      0      0.00%    100.00% # Request fanout histogram
system.tol2bus.snoop_fanout::overflows              0      0.00%    100.00% # Request fanout histogram
system.tol2bus.snoop_fanout::min_value              0                       # Request fanout histogram
system.tol2bus.snoop_fanout::max_value              1                       # Request fanout histogram
system.tol2bus.snoop_fanout::total              33482                       # Request fanout histogram
system.tol2bus.reqLayer0.occupancy           64968000                       # Layer occupancy (ticks)
system.tol2bus.reqLayer0.utilization              0.1                       # Layer utilization (%)
system.tol2bus.respLayer1.occupancy          48248500                       # Layer occupancy (ticks)
system.tol2bus.respLayer1.utilization             0.1                       # Layer utilization (%)
system.tol2bus.respLayer0.occupancy           1429500                       # Layer occupancy (ticks)
system.tol2bus.respLayer0.utilization             0.0                       # Layer utilization (%)
system.tol2bus.power_state.pwrStateResidencyTicks::UNDEFINED  81825606000                       # Cumulative time (in ticks) in various power states
system.voltage_domain.voltage                       1                       # Voltage in Volts
system.clk_domain.clock                          1000                       # Clock period in ticks
system.l2.demand_hits::.cpu.inst                  262                       # number of demand (read+write) hits
system.l2.demand_hits::.cpu.data                31187                       # number of demand (read+write) hits
system.l2.demand_hits::total                    31449                       # number of demand (read+write) hits
system.l2.overall_hits::.cpu.inst                 262                       # number of overall hits
system.l2.overall_hits::.cpu.data               31187                       # number of overall hits
system.l2.overall_hits::total                   31449                       # number of overall hits
system.l2.demand_misses::.cpu.inst                691                       # number of demand (read+write) misses
system.l2.demand_misses::.cpu.data                797                       # number of demand (read+write) misses
system.l2.demand_misses::total                   1488                       # number of demand (read+write) misses
system.l2.overall_misses::.cpu.inst               691                       # number of overall misses
system.l2.overall_misses::.cpu.data               797                       # number of overall misses
system.l2.overall_misses::total                  1488                       # number of overall misses
system.l2.demand_miss_latency::.cpu.inst     52338500                       # number of demand (read+write) miss cycles
system.l2.demand_miss_latency::.cpu.data     60567000                       # number of demand (read+write) miss cycles
system.l2.demand_miss_latency::total        112905500                       # number of demand (read+write) miss cycles
system.l2.overall_miss_latency::.cpu.inst     52338500                       # number of overall miss cycles
system.l2.overall_miss_latency::.cpu.data     60567000                       # number of overall miss cycles
system.l2.overall_miss_latency::total       112905500                       # number of overall miss cycles
system.l2.demand_accesses::.cpu.inst              953                       # number of demand (read+write) accesses
system.l2.demand_accesses::.cpu.data            31984                       # number of demand (read+write) accesses
system.l2.demand_accesses::total                32937                       # number of demand (read+write) accesses
system.l2.overall_accesses::.cpu.inst             953                       # number of overall (read+write) accesses
system.l2.overall_accesses::.cpu.data           31984                       # number of overall (read+write) accesses
system.l2.overall_accesses::total               32937                       # number of overall (read+write) accesses
system.l2.demand_miss_rate::.cpu.inst        0.725079                       # miss rate for demand accesses
system.l2.demand_miss_rate::.cpu.data        0.024919                       # miss rate for demand accesses
system.l2.demand_miss_rate::total            0.045177                       # miss rate for demand accesses
system.l2.overall_miss_rate::.cpu.inst       0.725079                       # miss rate for overall accesses
system.l2.overall_miss_rate::.cpu.data       0.024919                       # miss rate for overall accesses
system.l2.overall_miss_rate::total           0.045177                       # miss rate for overall accesses
system.l2.demand_avg_miss_latency::.cpu.inst 75743.125904                       # average overall miss latency
system.l2.demand_avg_miss_latency::.cpu.data 75993.726474                       # average overall miss latency
system.l2.demand_avg_miss_latency::total 75877.352151                       # average overall miss latency
system.l2.overall_avg_miss_latency::.cpu.inst 75743.125904                       # average overall miss latency
system.l2.overall_avg_miss_latency::.cpu.data 75993.726474                       # average overall miss latency
system.l2.overall_avg_miss_latency::total 75877.352151                       # average overall miss latency
system.l2.blocked_cycles::no_mshrs                  0                       # number of cycles access was blocked
system.l2.blocked_cycles::no_targets                0                       # number of cycles access was blocked
system.l2.blocked::no_mshrs                         0                       # number of cycles access was blocked
system.l2.blocked::no_targets                       0                       # number of cycles access was blocked
system.l2.avg_blocked_cycles::no_mshrs            nan                       # average number of cycles each access was blocked
system.l2.avg_blocked_cycles::no_targets          nan                       # average number of cycles each access was blocked
system.l2.demand_mshr_misses::.cpu.inst           691                       # number of demand (read+write) MSHR misses
system.l2.demand_mshr_misses::.cpu.data           797                       # number of demand (read+write) MSHR misses
system.l2.demand_mshr_misses::total              1488                       # number of demand (read+write) MSHR misses
system.l2.overall_mshr_misses::.cpu.inst          691                       # number of overall MSHR misses
system.l2.overall_mshr_misses::.cpu.data          797                       # number of overall MSHR misses
system.l2.overall_mshr_misses::total             1488                       # number of overall MSHR misses
system.l2.demand_mshr_miss_latency::.cpu.inst     45428500                       # number of demand (read+write) MSHR miss cycles
system.l2.demand_mshr_miss_latency::.cpu.data     52597000                       # number of demand (read+write) MSHR miss cycles
system.l2.demand_mshr_miss_latency::total     98025500                       # number of demand (read+write) MSHR miss cycles
system.l2.overall_mshr_miss_latency::.cpu.inst     45428500                       # number of overall MSHR miss cycles
system.l2.overall_mshr_miss_latency::.cpu.data     52597000                       # number of overall MSHR miss cycles
system.l2.overall_mshr_miss_latency::total     98025500                       # number of overall MSHR miss cycles
system.l2.demand_mshr_miss_rate::.cpu.inst     0.725079                       # mshr miss rate for demand accesses
system.l2.demand_mshr_miss_rate::.cpu.data     0.024919                       # mshr miss rate for demand accesses
system.l2.demand_mshr_miss_rate::total       0.045177                       # mshr miss rate for demand accesses
system.l2.overall_mshr_miss_rate::.cpu.inst     0.725079                       # mshr miss rate for overall accesses
system.l2.overall_mshr_miss_rate::.cpu.data     0.024919                       # mshr miss rate for overall accesses
system.l2.overall_mshr_miss_rate::total      0.045177                       # mshr miss rate for overall accesses
system.l2.demand_avg_mshr_miss_latency::.cpu.inst 65743.125904                       # average overall mshr miss latency
system.l2.demand_avg_mshr_miss_latency::.cpu.data 65993.726474                       # average overall mshr miss latency
system.l2.demand_avg_mshr_miss_latency::total 65877.352151                       # average overall mshr miss latency
system.l2.overall_avg_mshr_miss_latency::.cpu.inst 65743.125904                       # average overall mshr miss latency
system.l2.overall_avg_mshr_miss_latency::.cpu.data 65993.726474                       # average overall mshr miss latency
system.l2.overall_avg_mshr_miss_latency::total 65877.352151                       # average overall mshr miss latency
system.l2.replacements                              0                       # number of replacements
system.l2.WritebackDirty_hits::.writebacks        31427                       # number of WritebackDirty hits
system.l2.WritebackDirty_hits::total            31427                       # number of WritebackDirty hits
system.l2.WritebackDirty_accesses::.writebacks        31427                       # number of WritebackDirty accesses(hits+misses)
system.l2.WritebackDirty_accesses::total        31427                       # number of WritebackDirty accesses(hits+misses)
system.l2.WritebackClean_hits::.writebacks          697                       # number of WritebackClean hits
system.l2.WritebackClean_hits::total              697                       # number of WritebackClean hits
system.l2.WritebackClean_accesses::.writebacks          697                       # number of WritebackClean accesses(hits+misses)
system.l2.WritebackClean_accesses::total          697                       # number of WritebackClean accesses(hits+misses)
system.l2.ReadExReq_hits::.cpu.data               209                       # number of ReadExReq hits
system.l2.ReadExReq_hits::total                   209                       # number of ReadExReq hits
system.l2.ReadExReq_misses::.cpu.data             701                       # number of ReadExReq misses
system.l2.ReadExReq_misses::total                 701                       # number of ReadExReq misses
system.l2.ReadExReq_miss_latency::.cpu.data     52673500                       # number of ReadExReq miss cycles
system.l2.ReadExReq_miss_latency::total      52673500                       # number of ReadExReq miss cycles
system.l2.ReadExReq_accesses::.cpu.data           910                       # number of ReadExReq accesses(hits+misses)
system.l2.ReadExReq_accesses::total               910                       # number of ReadExReq accesses(hits+misses)
system.l2.ReadExReq_miss_rate::.cpu.data     0.770330                       # miss rate for ReadExReq accesses
system.l2.ReadExReq_miss_rate::total         0.770330                       # miss rate for ReadExReq accesses
system.l2.ReadExReq_avg_miss_latency::.cpu.data 75140.513552                       # average ReadExReq miss latency
system.l2.ReadExReq_avg_miss_latency::total 75140.513552                       # average ReadExReq miss latency
system.l2.ReadExReq_mshr_misses::.cpu.data          701                       # number of ReadExReq MSHR misses
system.l2.ReadExReq_mshr_misses::total            701                       # number of ReadExReq MSHR misses
system.l2.ReadExReq_mshr_miss_latency::.cpu.data     45663500                       # number of ReadExReq MSHR miss cycles
system.l2.ReadExReq_mshr_miss_latency::total     45663500                       # number of ReadExReq MSHR miss cycles
system.l2.ReadExReq_mshr_miss_rate::.cpu.data     0.770330                       # mshr miss rate for ReadExReq accesses
system.l2.ReadExReq_mshr_miss_rate::total     0.770330                       # mshr miss rate for ReadExReq accesses
system.l2.ReadExReq_avg_mshr_miss_latency::.cpu.data 65140.513552                       # average ReadExReq mshr miss latency
system.l2.ReadExReq_avg_mshr_miss_latency::total 65140.513552                       # average ReadExReq mshr miss latency
system.l2.ReadCleanReq_hits::.cpu.inst            262                       # number of ReadCleanReq hits
system.l2.ReadCleanReq_hits::total                262                       # number of ReadCleanReq hits
system.l2.ReadCleanReq_misses::.cpu.inst          691                       # number of ReadCleanReq misses
system.l2.ReadCleanReq_misses::total              691                       # number of ReadCleanReq misses
system.l2.ReadCleanReq_miss_latency::.cpu.inst     52338500                       # number of ReadCleanReq miss cycles
system.l2.ReadCleanReq_miss_latency::total     52338500                       # number of ReadCleanReq miss cycles
system.l2.ReadCleanReq_accesses::.cpu.inst          953                       # number of ReadCleanReq accesses(hits+misses)
system.l2.ReadCleanReq_accesses::total            953                       # number of ReadCleanReq accesses(hits+misses)
system.l2.ReadCleanReq_miss_rate::.cpu.inst     0.725079                       # miss rate for ReadCleanReq accesses
system.l2.ReadCleanReq_miss_rate::total      0.725079                       # miss rate for ReadCleanReq accesses
system.l2.ReadCleanReq_avg_miss_latency::.cpu.inst 75743.125904                       # average ReadCleanReq miss latency
system.l2.ReadCleanReq_avg_miss_latency::total 75743.125904                       # average ReadCleanReq miss latency
system.l2.ReadCleanReq_mshr_misses::.cpu.inst          691                       # number of ReadCleanReq MSHR misses
system.l2.ReadCleanReq_mshr_misses::total          691                       # number of ReadCleanReq MSHR misses
system.l2.ReadCleanReq_mshr_miss_latency::.cpu.inst     45428500                       # number of ReadCleanReq MSHR miss cycles
system.l2.ReadCleanReq_mshr_miss_latency::total     45428500                       # number of ReadCleanReq MSHR miss cycles
system.l2.ReadCleanReq_mshr_miss_rate::.cpu.inst     0.725079                       # mshr miss rate for ReadCleanReq accesses
system.l2.ReadCleanReq_mshr_miss_rate::total     0.725079                       # mshr miss rate for ReadCleanReq accesses
system.l2.ReadCleanReq_avg_mshr_miss_latency::.cpu.inst 65743.125904                       # average ReadCleanReq mshr miss latency
system.l2.ReadCleanReq_avg_mshr_miss_latency::total 65743.125904                       # average ReadCleanReq mshr miss latency
system.l2.ReadSharedReq_hits::.cpu.data         30978                       # number of ReadSharedReq hits
system.l2.ReadSharedReq_hits::total             30978                       # number of ReadSharedReq hits
system.l2.ReadSharedReq_misses::.cpu.data           96                       # number of ReadSharedReq misses
system.l2.ReadSharedReq_misses::total              96                       # number of ReadSharedReq misses
system.l2.ReadSharedReq_miss_latency::.cpu.data      7893500                       # number of ReadSharedReq miss cycles
system.l2.ReadSharedReq_miss_latency::total      7893500                       # number of ReadSharedReq miss cycles
system.l2.ReadSharedReq_accesses::.cpu.data        31074                       # number of ReadSharedReq accesses(hits+misses)
system.l2.ReadSharedReq_accesses::total         31074                       # number of ReadSharedReq accesses(hits+misses)
system.l2.ReadSharedReq_miss_rate::.cpu.data     0.003089                       # miss rate for ReadSharedReq accesses
system.l2.ReadSharedReq_miss_rate::total     0.003089                       # miss rate for ReadSharedReq accesses
system.l2.ReadSharedReq_avg_miss_latency::.cpu.data 82223.958333                       # average ReadSharedReq miss latency
system.l2.ReadSharedReq_avg_miss_latency::total 82223.958333                       # average ReadSharedReq miss latency
system.l2.ReadSharedReq_mshr_misses::.cpu.data           96                       # number of ReadSharedReq MSHR misses
system.l2.ReadSharedReq_mshr_misses::total           96                       # number of ReadSharedReq MSHR misses
system.l2.ReadSharedReq_mshr_miss_latency::.cpu.data      6933500                       # number of ReadSharedReq MSHR miss cycles
system.l2.ReadSharedReq_mshr_miss_latency::total      6933500                       # number of ReadSharedReq MSHR miss cycles
system.l2.ReadSharedReq_mshr_miss_rate::.cpu.data     0.003089                       # mshr miss rate for ReadSharedReq accesses
system.l2.ReadSharedReq_mshr_miss_rate::total     0.003089                       # mshr miss rate for ReadSharedReq accesses
system.l2.ReadSharedReq_avg_mshr_miss_latency::.cpu.data 72223.958333                       # average ReadSharedReq mshr miss latency
system.l2.ReadSharedReq_avg_mshr_miss_latency::total 72223.958333                       # average ReadSharedReq mshr miss latency
system.l2.InvalidateReq_misses::.cpu.data          545                       # number of InvalidateReq misses
system.l2.InvalidateReq_misses::total             545                       # number of InvalidateReq misses
system.l2.InvalidateReq_accesses::.cpu.data          545                       # number of InvalidateReq accesses(hits+misses)
system.l2.InvalidateReq_accesses::total           545                       # number of InvalidateReq accesses(hits+misses)
system.l2.InvalidateReq_miss_rate::.cpu.data            1                       # miss rate for InvalidateReq accesses
system.l2.InvalidateReq_miss_rate::total            1                       # miss rate for InvalidateReq accesses
system.l2.InvalidateReq_mshr_misses::.cpu.data          545                       # number of InvalidateReq MSHR misses
system.l2.InvalidateReq_mshr_misses::total          545                       # number of InvalidateReq MSHR misses
system.l2.InvalidateReq_mshr_miss_latency::.cpu.data     10362500                       # number of InvalidateReq MSHR miss cycles
system.l2.InvalidateReq_mshr_miss_latency::total     10362500                       # number of InvalidateReq MSHR miss cycles
system.l2.InvalidateReq_mshr_miss_rate::.cpu.data            1                       # mshr miss rate for InvalidateReq accesses
system.l2.InvalidateReq_mshr_miss_rate::total            1                       # mshr miss rate for InvalidateReq accesses
system.l2.InvalidateReq_avg_mshr_miss_latency::.cpu.data 19013.761468                       # average InvalidateReq mshr miss latency
system.l2.InvalidateReq_avg_mshr_miss_latency::total 19013.761468                       # average InvalidateReq mshr miss latency
system.l2.power_state.pwrStateResidencyTicks::UNDEFINED  81825606000                       # Cumulative time (in ticks) in various power states
system.l2.tags.tagsinuse                  1585.748113                       # Cycle average of tags in use
system.l2.tags.total_refs                       65142                       # Total number of references to valid blocks.
system.l2.tags.sampled_refs                      1594                       # Sample count of references to valid blocks.
system.l2.tags.avg_refs                     40.867001                       # Average number of references to valid blocks.
system.l2.tags.warmup_cycle                     77000                       # Cycle when the warmup percentage was hit.
system.l2.tags.occ_blocks::.writebacks     105.133891                       # Average occupied blocks per requestor
system.l2.tags.occ_blocks::.cpu.inst       688.548632                       # Average occupied blocks per requestor
system.l2.tags.occ_blocks::.cpu.data       792.065590                       # Average occupied blocks per requestor
system.l2.tags.occ_percent::.writebacks      0.003208                       # Average percentage of cache occupancy
system.l2.tags.occ_percent::.cpu.inst        0.021013                       # Average percentage of cache occupancy
system.l2.tags.occ_percent::.cpu.data        0.024172                       # Average percentage of cache occupancy
system.l2.tags.occ_percent::total            0.048393                       # Average percentage of cache occupancy
system.l2.tags.occ_task_id_blocks::1024          1594                       # Occupied blocks per task id
system.l2.tags.age_task_id_blocks_1024::4         1594                       # Occupied blocks per task id
system.l2.tags.occ_task_id_percent::1024     0.048645                       # Percentage of cache occupancy per task id
system.l2.tags.tag_accesses                    527090                       # Number of tag accesses
system.l2.tags.data_accesses                   527090                       # Number of data accesses
system.l2.tags.power_state.pwrStateResidencyTicks::UNDEFINED  81825606000                       # Cumulative time (in ticks) in various power states
system.cpu_voltage_domain.voltage                   1                       # Voltage in Volts
system.mem_ctrls.bytes_read::.cpu.inst          44224                       # Number of bytes read from this memory
system.mem_ctrls.bytes_read::.cpu.data          51008                       # Number of bytes read from this memory
system.mem_ctrls.bytes_read::total              95232                       # Number of bytes read from this memory
system.mem_ctrls.bytes_inst_read::.cpu.inst        44224                       # Number of instructions bytes read from this memory
system.mem_ctrls.bytes_inst_read::total         44224                       # Number of instructions bytes read from this memory
system.mem_ctrls.num_reads::.cpu.inst             691                       # Number of read requests responded to by this memory
system.mem_ctrls.num_reads::.cpu.data             797                       # Number of read requests responded to by this memory
system.mem_ctrls.num_reads::total                1488                       # Number of read requests responded to by this memory
system.mem_ctrls.bw_read::.cpu.inst            540467                       # Total read bandwidth from this memory (bytes/s)
system.mem_ctrls.bw_read::.cpu.data            623375                       # Total read bandwidth from this memory (bytes/s)
system.mem_ctrls.bw_read::total               1163841                       # Total read bandwidth from this memory (bytes/s)
system.mem_ctrls.bw_inst_read::.cpu.inst       540467                       # Instruction read bandwidth from this memory (bytes/s)
system.mem_ctrls.bw_inst_read::total           540467                       # Instruction read bandwidth from this memory (bytes/s)
system.mem_ctrls.bw_total::.cpu.inst           540467                       # Total bandwidth to/from this memory (bytes/s)
system.mem_ctrls.bw_total::.cpu.data           623375                       # Total bandwidth to/from this memory (bytes/s)
system.mem_ctrls.bw_total::total              1163841                       # Total bandwidth to/from this memory (bytes/s)
system.mem_ctrls.avgPriority_.cpu.inst::samples       691.00                       # Average QoS priority value for accepted requests
system.mem_ctrls.avgPriority_.cpu.data::samples       797.00                       # Average QoS priority value for accepted requests
system.mem_ctrls.priorityMinLatency      0.000000018750                       # per QoS priority minimum request to response latency (s)
system.mem_ctrls.priorityMaxLatency      0.000000570000                       # per QoS priority maximum request to response latency (s)
system.mem_ctrls.numReadWriteTurnArounds            0                       # Number of turnarounds from READ to WRITE
system.mem_ctrls.numWriteReadTurnArounds            0                       # Number of turnarounds from WRITE to READ
system.mem_ctrls.numStayReadState               23980                       # Number of times bus staying in READ state
system.mem_ctrls.numStayWriteState                  0                       # Number of times bus staying in WRITE state
system.mem_ctrls.readReqs                        1488                       # Number of read requests accepted
system.mem_ctrls.writeReqs                          0                       # Number of write requests accepted
system.mem_ctrls.readBursts                      1488                       # Number of DRAM read bursts, including those serviced by the write queue
system.mem_ctrls.writeBursts                        0                       # Number of DRAM write bursts, including those merged in the write queue
system.mem_ctrls.servicedByWrQ                      0                       # Number of DRAM read bursts serviced by the write queue
system.mem_ctrls.mergedWrBursts                     0                       # Number of DRAM write bursts merged with an existing one
system.mem_ctrls.neitherReadNorWriteReqs            0                       # Number of requests that are neither read nor write
system.mem_ctrls.perBankRdBursts::0               199                       # Per bank write bursts
system.mem_ctrls.perBankRdBursts::1                94                       # Per bank write bursts
system.mem_ctrls.perBankRdBursts::2               109                       # Per bank write bursts
system.mem_ctrls.perBankRdBursts::3                80                       # Per bank write bursts
system.mem_ctrls.perBankRdBursts::4               124                       # Per bank write bursts
system.mem_ctrls.perBankRdBursts::5                 5                       # Per bank write bursts
system.mem_ctrls.perBankRdBursts::6                38                       # Per bank write bursts
system.mem_ctrls.perBankRdBursts::7                 0                       # Per bank write bursts
system.mem_ctrls.perBankRdBursts::8               110                       # Per bank write bursts
system.mem_ctrls.perBankRdBursts::9               145                       # Per bank write bursts
system.mem_ctrls.perBankRdBursts::10              141                       # Per bank write bursts
system.mem_ctrls.perBankRdBursts::11              104                       # Per bank write bursts
system.mem_ctrls.perBankRdBursts::12              163                       # Per bank write bursts
system.mem_ctrls.perBankRdBursts::13               11                       # Per bank write bursts
system.mem_ctrls.perBankRdBursts::14               50                       # Per bank write bursts
system.mem_ctrls.perBankRdBursts::15              115                       # Per bank write bursts
system.mem_ctrls.perBankWrBursts::0                 0                       # Per bank write bursts
system.mem_ctrls.perBankWrBursts::1                 0                       # Per bank write bursts
system.mem_ctrls.perBankWrBursts::2                 0                       # Per bank write bursts
system.mem_ctrls.perBankWrBursts::3                 0                       # Per bank write bursts
system.mem_ctrls.perBankWrBursts::4                 0                       # Per bank write bursts
system.mem_ctrls.perBankWrBursts::5                 0                       # Per bank write bursts
system.mem_ctrls.perBankWrBursts::6                 0                       # Per bank write bursts
system.mem_ctrls.perBankWrBursts::7                 0                       # Per bank write bursts
system.mem_ctrls.perBankWrBursts::8                 0                       # Per bank write bursts
system.mem_ctrls.perBankWrBursts::9                 0                       # Per bank write bursts
system.mem_ctrls.perBankWrBursts::10                0                       # Per bank write bursts
system.mem_ctrls.perBankWrBursts::11                0                       # Per bank write bursts
system.mem_ctrls.perBankWrBursts::12                0                       # Per bank write bursts
system.mem_ctrls.perBankWrBursts::13                0                       # Per bank write bursts
system.mem_ctrls.perBankWrBursts::14                0                       # Per bank write bursts
system.mem_ctrls.perBankWrBursts::15                0                       # Per bank write bursts
system.mem_ctrls.avgRdQLen                       1.00                       # Average read queue length when enqueuing
system.mem_ctrls.avgWrQLen                       0.00                       # Average write queue length when enqueuing
system.mem_ctrls.totQLat                      9218750                       # Total ticks spent queuing
system.mem_ctrls.totBusLat                    7440000                       # Total ticks spent in databus transfers
system.mem_ctrls.totMemAccLat                37118750                       # Total ticks spent from burst creation until serviced by the DRAM
system.mem_ctrls.avgQLat                      6195.40                       # Average queueing delay per DRAM burst
system.mem_ctrls.avgBusLat                    5000.00                       # Average bus latency per DRAM burst
system.mem_ctrls.avgMemAccLat                24945.40                       # Average memory access latency per DRAM burst
system.mem_ctrls.numRdRetry                         0                       # Number of times read queue was full causing retry
system.mem_ctrls.numWrRetry                         0                       # Number of times write queue was full causing retry
system.mem_ctrls.readRowHits                     1208                       # Number of row buffer hits during reads
system.mem_ctrls.writeRowHits                       0                       # Number of row buffer hits during writes
system.mem_ctrls.readRowHitRate                 81.18                       # Row buffer hit rate for reads
system.mem_ctrls.writeRowHitRate                  nan                       # Row buffer hit rate for writes
system.mem_ctrls.readPktSize::0                     0                       # Read request sizes (log2)
system.mem_ctrls.readPktSize::1                     0                       # Read request sizes (log2)
system.mem_ctrls.readPktSize::2                     0                       # Read request sizes (log2)
system.mem_ctrls.readPktSize::3                     0                       # Read request sizes (log2)
system.mem_ctrls.readPktSize::4                     0                       # Read request sizes (log2)
system.mem_ctrls.readPktSize::5                     0                       # Read request sizes (log2)
system.mem_ctrls.readPktSize::6                  1488                       # Read request sizes (log2)
system.mem_ctrls.writePktSize::0                    0                       # Write request sizes (log2)
system.mem_ctrls.writePktSize::1                    0                       # Write request sizes (log2)
system.mem_ctrls.writePktSize::2                    0                       # Write request sizes (log2)
system.mem_ctrls.writePktSize::3                    0                       # Write request sizes (log2)
system.mem_ctrls.writePktSize::4                    0                       # Write request sizes (log2)
system.mem_ctrls.writePktSize::5                    0                       # Write request sizes (log2)
system.mem_ctrls.writePktSize::6                    0                       # Write request sizes (log2)
system.mem_ctrls.rdQLenPdf::0                    1373                       # What read queue length does an incoming req see
system.mem_ctrls.rdQLenPdf::1                     104                       # What read queue length does an incoming req see
system.mem_ctrls.rdQLenPdf::2                      11                       # What read queue length does an incoming req see
system.mem_ctrls.rdQLenPdf::3                       0                       # What read queue length does an incoming req see
system.mem_ctrls.rdQLenPdf::4                       0                       # What read queue length does an incoming req see
system.mem_ctrls.rdQLenPdf::5                       0                       # What read queue length does an incoming req see
system.mem_ctrls.rdQLenPdf::6                       0                       # What read queue length does an incoming req see
system.mem_ctrls.rdQLenPdf::7                       0                       # What read queue length does an incoming req see
system.mem_ctrls.rdQLenPdf::8                       0                       # What read queue length does an incoming req see
system.mem_ctrls.rdQLenPdf::9                       0                       # What read queue length does an incoming req see
system.mem_ctrls.rdQLenPdf::10                      0                       # What read queue length does an incoming req see
system.mem_ctrls.rdQLenPdf::11                      0                       # What read queue length does an incoming req see
system.mem_ctrls.rdQLenPdf::12                      0                       # What read queue length does an incoming req see
system.mem_ctrls.rdQLenPdf::13                      0                       # What read queue length does an incoming req see
system.mem_ctrls.rdQLenPdf::14                      0                       # What read queue length does an incoming req see
system.mem_ctrls.rdQLenPdf::15                      0                       # What read queue length does an incoming req see
system.mem_ctrls.rdQLenPdf::16                      0                       # What read queue length does an incoming req see
system.mem_ctrls.rdQLenPdf::17                      0                       # What read queue length does an incoming req see
system.mem_ctrls.rdQLenPdf::18                      0                       # What read queue length does an incoming req see
system.mem_ctrls.rdQLenPdf::19                      0                       # What read queue length does an incoming req see
system.mem_ctrls.rdQLenPdf::20                      0                       # What read queue length does an incoming req see
system.mem_ctrls.rdQLenPdf::21                      0                       # What read queue length does an incoming req see
system.mem_ctrls.rdQLenPdf::22                      0                       # What read queue length does an incoming req see
system.mem_ctrls.rdQLenPdf::23                      0                       # What read queue length does an incoming req see
system.mem_ctrls.rdQLenPdf::24                      0                       # What read queue length does an incoming req see
system.mem_ctrls.rdQLenPdf::25                      0                       # What read queue length does an incoming req see
system.mem_ctrls.rdQLenPdf::26                      0                       # What read queue length does an incoming req see
system.mem_ctrls.rdQLenPdf::27                      0                       # What read queue length does an incoming req see
system.mem_ctrls.rdQLenPdf::28                      0                       # What read queue length does an incoming req see
system.mem_ctrls.rdQLenPdf::29                      0                       # What read queue length does an incoming req see
system.mem_ctrls.rdQLenPdf::30                      0                       # What read queue length does an incoming req see
system.mem_ctrls.rdQLenPdf::31                      0                       # What read queue length does an incoming req see
system.mem_ctrls.wrQLenPdf::0                       0                       # What write queue length does an incoming req see
system.mem_ctrls.wrQLenPdf::1                       0                       # What write queue length does an incoming req see
system.mem_ctrls.wrQLenPdf::2                       0                       # What write queue length does an incoming req see
system.mem_ctrls.wrQLenPdf::3                       0                       # What write queue length does an incoming req see
system.mem_ctrls.wrQLenPdf::4                       0                       # What write queue length does an incoming req see
system.mem_ctrls.wrQLenPdf::5                       0                       # What write queue length does an incoming req see
system.mem_ctrls.wrQLenPdf::6                       0                       # What write queue length does an incoming req see
system.mem_ctrls.wrQLenPdf::7                       0                       # What write queue length does an incoming req see
system.mem_ctrls.wrQLenPdf::8                       0                       # What write queue length does an incoming req see
system.mem_ctrls.wrQLenPdf::9                       0                       # What write queue length does an incoming req see
system.mem_ctrls.wrQLenPdf::10                      0                       # What write queue length does an incoming req see
system.mem_ctrls.wrQLenPdf::11                      0                       # What write queue length does an incoming req see
system.mem_ctrls.wrQLenPdf::12                      0                       # What write queue length does an incoming req see
system.mem_ctrls.wrQLenPdf::13                      0                       # What write queue length does an incoming req see
system.mem_ctrls.wrQLenPdf::14                      0                       # What write queue length does an incoming req see
system.mem_ctrls.wrQLenPdf::15                      0                       # What write queue length does an incoming req see
system.mem_ctrls.wrQLenPdf::16                      0                       # What write queue length does an incoming req see
system.mem_ctrls.wrQLenPdf::17                      0                       # What write queue length does an incoming req see
system.mem_ctrls.wrQLenPdf::18                      0                       # What write queue length does an incoming req see
system.mem_ctrls.wrQLenPdf::19                      0                       # What write queue length does an incoming req see
system.mem_ctrls.wrQLenPdf::20                      0                       # What write queue length does an incoming req see
system.mem_ctrls.wrQLenPdf::21                      0                       # What write queue length does an incoming req see
system.mem_ctrls.wrQLenPdf::22                      0                       # What write queue length does an incoming req see
system.mem_ctrls.wrQLenPdf::23                      0                       # What write queue length does an incoming req see
system.mem_ctrls.wrQLenPdf::24                      0                       # What write queue length does an incoming req see
system.mem_ctrls.wrQLenPdf::25                      0                       # What write queue length does an incoming req see
system.mem_ctrls.wrQLenPdf::26                      0                       # What write queue length does an incoming req see
system.mem_ctrls.wrQLenPdf::27                      0                       # What write queue length does an incoming req see
system.mem_ctrls.wrQLenPdf::28                      0                       # What write queue length does an incoming req see
system.mem_ctrls.wrQLenPdf::29                      0                       # What write queue length does an incoming req see
system.mem_ctrls.wrQLenPdf::30                      0                       # What write queue length does an incoming req see
system.mem_ctrls.wrQLenPdf::31                      0                       # What write queue length does an incoming req see
system.mem_ctrls.wrQLenPdf::32                      0                       # What write queue length does an incoming req see
system.mem_ctrls.wrQLenPdf::33                      0                       # What write queue length does an incoming req see
system.mem_ctrls.wrQLenPdf::34                      0                       # What write queue length does an incoming req see
system.mem_ctrls.wrQLenPdf::35                      0                       # What write queue length does an incoming req see
system.mem_ctrls.wrQLenPdf::36                      0                       # What write queue length does an incoming req see
system.mem_ctrls.wrQLenPdf::37                      0                       # What write queue length does an incoming req see
system.mem_ctrls.wrQLenPdf::38                      0                       # What write queue length does an incoming req see
system.mem_ctrls.wrQLenPdf::39                      0                       # What write queue length does an incoming req see
system.mem_ctrls.wrQLenPdf::40                      0                       # What write queue length does an incoming req see
system.mem_ctrls.wrQLenPdf::41                      0                       # What write queue length does an incoming req see
system.mem_ctrls.wrQLenPdf::42                      0                       # What write queue length does an incoming req see
system.mem_ctrls.wrQLenPdf::43                      0                       # What write queue length does an incoming req see
system.mem_ctrls.wrQLenPdf::44                      0                       # What write queue length does an incoming req see
system.mem_ctrls.wrQLenPdf::45                      0                       # What write queue length does an incoming req see
system.mem_ctrls.wrQLenPdf::46                      0                       # What write queue length does an incoming req see
system.mem_ctrls.wrQLenPdf::47                      0                       # What write queue length does an incoming req see
system.mem_ctrls.wrQLenPdf::48                      0                       # What write queue length does an incoming req see
system.mem_ctrls.wrQLenPdf::49                      0                       # What write queue length does an incoming req see
system.mem_ctrls.wrQLenPdf::50                      0                       # What write queue length does an incoming req see
system.mem_ctrls.wrQLenPdf::51                      0                       # What write queue length does an incoming req see
system.mem_ctrls.wrQLenPdf::52                      0                       # What write queue length does an incoming req see
system.mem_ctrls.wrQLenPdf::53                      0                       # What write queue length does an incoming req see
system.mem_ctrls.wrQLenPdf::54                      0                       # What write queue length does an incoming req see
system.mem_ctrls.wrQLenPdf::55                      0                       # What write queue length does an incoming req see
system.mem_ctrls.wrQLenPdf::56                      0                       # What write queue length does an incoming req see
system.mem_ctrls.wrQLenPdf::57                      0                       # What write queue length does an incoming req see
system.mem_ctrls.wrQLenPdf::58                      0                       # What write queue length does an incoming req see
system.mem_ctrls.wrQLenPdf::59                      0                       # What write queue length does an incoming req see
system.mem_ctrls.wrQLenPdf::60                      0                       # What write queue length does an incoming req see
system.mem_ctrls.wrQLenPdf::61                      0                       # What write queue length does an incoming req see
system.mem_ctrls.wrQLenPdf::62                      0                       # What write queue length does an incoming req see
system.mem_ctrls.wrQLenPdf::63                      0                       # What write queue length does an incoming req see
system.mem_ctrls.bytesPerActivate::samples          280                       # Bytes accessed per row activation
system.mem_ctrls.bytesPerActivate::mean    340.114286                       # Bytes accessed per row activation
system.mem_ctrls.bytesPerActivate::gmean   208.125307                       # Bytes accessed per row activation
system.mem_ctrls.bytesPerActivate::stdev   334.476129                       # Bytes accessed per row activation
system.mem_ctrls.bytesPerActivate::0-127           87     31.07%     31.07% # Bytes accessed per row activation
system.mem_ctrls.bytesPerActivate::128-255           63     22.50%     53.57% # Bytes accessed per row activation
system.mem_ctrls.bytesPerActivate::256-383           45     16.07%     69.64% # Bytes accessed per row activation
system.mem_ctrls.bytesPerActivate::384-511           17      6.07%     75.71% # Bytes accessed per row activation
system.mem_ctrls.bytesPerActivate::512-639            8      2.86%     78.57% # Bytes accessed per row activation
system.mem_ctrls.bytesPerActivate::640-767           11      3.93%     82.50% # Bytes accessed per row activation
system.mem_ctrls.bytesPerActivate::768-895            5      1.79%     84.29% # Bytes accessed per row activation
system.mem_ctrls.bytesPerActivate::896-1023            9      3.21%     87.50% # Bytes accessed per row activation
system.mem_ctrls.bytesPerActivate::1024-1151           35     12.50%    100.00% # Bytes accessed per row activation
system.mem_ctrls.bytesPerActivate::total          280                       # Bytes accessed per row activation
system.mem_ctrls.bytesReadDRAM                  95232                       # Total number of bytes read from DRAM
system.mem_ctrls.bytesReadWrQ                       0                       # Total number of bytes read from write queue
system.mem_ctrls.bytesWritten                       0                       # Total number of bytes written to DRAM
system.mem_ctrls.bytesReadSys                   95232                       # Total read bytes from the system interface side
system.mem_ctrls.bytesWrittenSys                    0                       # Total written bytes from the system interface side
system.mem_ctrls.avgRdBW                         1.16                       # Average DRAM read bandwidth in MiByte/s
system.mem_ctrls.avgWrBW                         0.00                       # Average achieved write bandwidth in MiByte/s
system.mem_ctrls.avgRdBWSys                      1.16                       # Average system read bandwidth in MiByte/s
system.mem_ctrls.avgWrBWSys                      0.00                       # Average system write bandwidth in MiByte/s
system.mem_ctrls.peakBW                      12800.00                       # Theoretical peak bandwidth in MiByte/s
system.mem_ctrls.busUtil                         0.01                       # Data bus utilization in percentage
system.mem_ctrls.busUtilRead                     0.01                       # Data bus utilization in percentage for reads
system.mem_ctrls.busUtilWrite                    0.00                       # Data bus utilization in percentage for writes
system.mem_ctrls.totGap                   10263189000                       # Total gap between requests
system.mem_ctrls.avgGap                    6897304.44                       # Average gap between requests
system.mem_ctrls.masterReadBytes::.cpu.inst        44224                       # Per-master bytes read from memory
system.mem_ctrls.masterReadBytes::.cpu.data        51008                       # Per-master bytes read from memory
system.mem_ctrls.masterReadRate::.cpu.inst 540466.513624109328                       # Per-master bytes read from memory rate (Bytes/sec)
[...]
system.cpu.icache.tags.tag_accesses          75801655                       # Number of tag accesses
system.cpu.icache.tags.data_accesses         75801655                       # Number of data accesses
system.cpu.icache.tags.power_state.pwrStateResidencyTicks::UNDEFINED  81825606000                       # Cumulative time (in ticks) in various power states
system.cpu.dtb.walker.power_state.pwrStateResidencyTicks::UNDEFINED  81825606000                       # Cumulative time (in ticks) in various power states
system.cpu.dtb.stage2_mmu.stage2_tlb.walker.power_state.pwrStateResidencyTicks::UNDEFINED  81825606000                       # Cumulative time (in ticks) in various power states
system.cpu.dcache.demand_hits::.cpu.data     31785597                       # number of demand (read+write) hits
system.cpu.dcache.demand_hits::total         31785597                       # number of demand (read+write) hits
system.cpu.dcache.overall_hits::.cpu.data     31785619                       # number of overall hits
system.cpu.dcache.overall_hits::total        31785619                       # number of overall hits
system.cpu.dcache.demand_misses::.cpu.data        33429                       # number of demand (read+write) misses
system.cpu.dcache.demand_misses::total          33429                       # number of demand (read+write) misses
system.cpu.dcache.overall_misses::.cpu.data        33431                       # number of overall misses
system.cpu.dcache.overall_misses::total         33431                       # number of overall misses
system.cpu.dcache.demand_miss_latency::.cpu.data    535118500                       # number of demand (read+write) miss cycles
system.cpu.dcache.demand_miss_latency::total    535118500                       # number of demand (read+write) miss cycles
system.cpu.dcache.overall_miss_latency::.cpu.data    535118500                       # number of overall miss cycles
system.cpu.dcache.overall_miss_latency::total    535118500                       # number of overall miss cycles
system.cpu.dcache.demand_accesses::.cpu.data     31819026                       # number of demand (read+write) accesses
system.cpu.dcache.demand_accesses::total     31819026                       # number of demand (read+write) accesses
system.cpu.dcache.overall_accesses::.cpu.data     31819050                       # number of overall (read+write) accesses
system.cpu.dcache.overall_accesses::total     31819050                       # number of overall (read+write) accesses
system.cpu.dcache.demand_miss_rate::.cpu.data     0.001051                       # miss rate for demand accesses
system.cpu.dcache.demand_miss_rate::total     0.001051                       # miss rate for demand accesses
system.cpu.dcache.overall_miss_rate::.cpu.data     0.001051                       # miss rate for overall accesses
system.cpu.dcache.overall_miss_rate::total     0.001051                       # miss rate for overall accesses
system.cpu.dcache.demand_avg_miss_latency::.cpu.data 16007.613150                       # average overall miss latency
system.cpu.dcache.demand_avg_miss_latency::total 16007.613150                       # average overall miss latency
system.cpu.dcache.overall_avg_miss_latency::.cpu.data 16006.655499                       # average overall miss latency
system.cpu.dcache.overall_avg_miss_latency::total 16006.655499                       # average overall miss latency
system.cpu.dcache.blocked_cycles::no_mshrs            0                       # number of cycles access was blocked
system.cpu.dcache.blocked_cycles::no_targets            0                       # number of cycles access was blocked
system.cpu.dcache.blocked::no_mshrs                 0                       # number of cycles access was blocked
system.cpu.dcache.blocked::no_targets               0                       # number of cycles access was blocked
system.cpu.dcache.avg_blocked_cycles::no_mshrs          nan                       # average number of cycles each access was blocked
system.cpu.dcache.avg_blocked_cycles::no_targets          nan                       # average number of cycles each access was blocked
system.cpu.dcache.writebacks::.writebacks        31427                       # number of writebacks
system.cpu.dcache.writebacks::total             31427                       # number of writebacks
system.cpu.dcache.demand_mshr_hits::.cpu.data          902                       # number of demand (read+write) MSHR hits
system.cpu.dcache.demand_mshr_hits::total          902                       # number of demand (read+write) MSHR hits
system.cpu.dcache.overall_mshr_hits::.cpu.data          902                       # number of overall MSHR hits
system.cpu.dcache.overall_mshr_hits::total          902                       # number of overall MSHR hits
system.cpu.dcache.demand_mshr_misses::.cpu.data        32527                       # number of demand (read+write) MSHR misses
system.cpu.dcache.demand_mshr_misses::total        32527                       # number of demand (read+write) MSHR misses
system.cpu.dcache.overall_mshr_misses::.cpu.data        32529                       # number of overall MSHR misses
system.cpu.dcache.overall_mshr_misses::total        32529                       # number of overall MSHR misses
system.cpu.dcache.demand_mshr_miss_latency::.cpu.data    452459500                       # number of demand (read+write) MSHR miss cycles
system.cpu.dcache.demand_mshr_miss_latency::total    452459500                       # number of demand (read+write) MSHR miss cycles
system.cpu.dcache.overall_mshr_miss_latency::.cpu.data    452644000                       # number of overall MSHR miss cycles
system.cpu.dcache.overall_mshr_miss_latency::total    452644000                       # number of overall MSHR miss cycles
system.cpu.dcache.demand_mshr_miss_rate::.cpu.data     0.001022                       # mshr miss rate for demand accesses
system.cpu.dcache.demand_mshr_miss_rate::total     0.001022                       # mshr miss rate for demand accesses
system.cpu.dcache.overall_mshr_miss_rate::.cpu.data     0.001022                       # mshr miss rate for overall accesses
system.cpu.dcache.overall_mshr_miss_rate::total     0.001022                       # mshr miss rate for overall accesses
system.cpu.dcache.demand_avg_mshr_miss_latency::.cpu.data 13910.274541                       # average overall mshr miss latency
system.cpu.dcache.demand_avg_mshr_miss_latency::total 13910.274541                       # average overall mshr miss latency
system.cpu.dcache.overall_avg_mshr_miss_latency::.cpu.data 13915.091149                       # average overall mshr miss latency
system.cpu.dcache.overall_avg_mshr_miss_latency::total 13915.091149                       # average overall mshr miss latency
system.cpu.dcache.replacements                  31509                       # number of replacements
system.cpu.dcache.ReadReq_hits::.cpu.data     25919317                       # number of ReadReq hits
system.cpu.dcache.ReadReq_hits::total        25919317                       # number of ReadReq hits
system.cpu.dcache.ReadReq_misses::.cpu.data        31115                       # number of ReadReq misses
system.cpu.dcache.ReadReq_misses::total         31115                       # number of ReadReq misses
system.cpu.dcache.ReadReq_miss_latency::.cpu.data    411957500                       # number of ReadReq miss cycles
system.cpu.dcache.ReadReq_miss_latency::total    411957500                       # number of ReadReq miss cycles
system.cpu.dcache.ReadReq_accesses::.cpu.data     25950432                       # number of ReadReq accesses(hits+misses)
system.cpu.dcache.ReadReq_accesses::total     25950432                       # number of ReadReq accesses(hits+misses)
system.cpu.dcache.ReadReq_miss_rate::.cpu.data     0.001199                       # miss rate for ReadReq accesses
system.cpu.dcache.ReadReq_miss_rate::total     0.001199                       # miss rate for ReadReq accesses
system.cpu.dcache.ReadReq_avg_miss_latency::.cpu.data 13239.836092                       # average ReadReq miss latency
system.cpu.dcache.ReadReq_avg_miss_latency::total 13239.836092                       # average ReadReq miss latency
system.cpu.dcache.ReadReq_mshr_hits::.cpu.data           43                       # number of ReadReq MSHR hits
system.cpu.dcache.ReadReq_mshr_hits::total           43                       # number of ReadReq MSHR hits
system.cpu.dcache.ReadReq_mshr_misses::.cpu.data        31072                       # number of ReadReq MSHR misses
system.cpu.dcache.ReadReq_mshr_misses::total        31072                       # number of ReadReq MSHR misses
system.cpu.dcache.ReadReq_mshr_miss_latency::.cpu.data    379592000                       # number of ReadReq MSHR miss cycles
system.cpu.dcache.ReadReq_mshr_miss_latency::total    379592000                       # number of ReadReq MSHR miss cycles
system.cpu.dcache.ReadReq_mshr_miss_rate::.cpu.data     0.001197                       # mshr miss rate for ReadReq accesses
system.cpu.dcache.ReadReq_mshr_miss_rate::total     0.001197                       # mshr miss rate for ReadReq accesses
system.cpu.dcache.ReadReq_avg_mshr_miss_latency::.cpu.data 12216.529351                       # average ReadReq mshr miss latency
system.cpu.dcache.ReadReq_avg_mshr_miss_latency::total 12216.529351                       # average ReadReq mshr miss latency
system.cpu.dcache.WriteReq_hits::.cpu.data      5866261                       # number of WriteReq hits
system.cpu.dcache.WriteReq_hits::total        5866261                       # number of WriteReq hits
system.cpu.dcache.WriteReq_misses::.cpu.data         1769                       # number of WriteReq misses
system.cpu.dcache.WriteReq_misses::total         1769                       # number of WriteReq misses
system.cpu.dcache.WriteReq_miss_latency::.cpu.data    105983000                       # number of WriteReq miss cycles
system.cpu.dcache.WriteReq_miss_latency::total    105983000                       # number of WriteReq miss cycles
system.cpu.dcache.WriteReq_accesses::.cpu.data      5868030                       # number of WriteReq accesses(hits+misses)
system.cpu.dcache.WriteReq_accesses::total      5868030                       # number of WriteReq accesses(hits+misses)
system.cpu.dcache.WriteReq_miss_rate::.cpu.data     0.000301                       # miss rate for WriteReq accesses
system.cpu.dcache.WriteReq_miss_rate::total     0.000301                       # miss rate for WriteReq accesses
system.cpu.dcache.WriteReq_avg_miss_latency::.cpu.data 59911.249293                       # average WriteReq miss latency
system.cpu.dcache.WriteReq_avg_miss_latency::total 59911.249293                       # average WriteReq miss latency
system.cpu.dcache.WriteReq_mshr_hits::.cpu.data          859                       # number of WriteReq MSHR hits
system.cpu.dcache.WriteReq_mshr_hits::total          859                       # number of WriteReq MSHR hits
system.cpu.dcache.WriteReq_mshr_misses::.cpu.data          910                       # number of WriteReq MSHR misses
system.cpu.dcache.WriteReq_mshr_misses::total          910                       # number of WriteReq MSHR misses
system.cpu.dcache.WriteReq_mshr_miss_latency::.cpu.data     56234500                       # number of WriteReq MSHR miss cycles
system.cpu.dcache.WriteReq_mshr_miss_latency::total     56234500                       # number of WriteReq MSHR miss cycles
system.cpu.dcache.WriteReq_mshr_miss_rate::.cpu.data     0.000155                       # mshr miss rate for WriteReq accesses
system.cpu.dcache.WriteReq_mshr_miss_rate::total     0.000155                       # mshr miss rate for WriteReq accesses
system.cpu.dcache.WriteReq_avg_mshr_miss_latency::.cpu.data 61796.153846                       # average WriteReq mshr miss latency
system.cpu.dcache.WriteReq_avg_mshr_miss_latency::total 61796.153846                       # average WriteReq mshr miss latency
system.cpu.dcache.SoftPFReq_hits::.cpu.data           22                       # number of SoftPFReq hits
system.cpu.dcache.SoftPFReq_hits::total            22                       # number of SoftPFReq hits
system.cpu.dcache.SoftPFReq_misses::.cpu.data            2                       # number of SoftPFReq misses
system.cpu.dcache.SoftPFReq_misses::total            2                       # number of SoftPFReq misses
system.cpu.dcache.SoftPFReq_accesses::.cpu.data           24                       # number of SoftPFReq accesses(hits+misses)
system.cpu.dcache.SoftPFReq_accesses::total           24                       # number of SoftPFReq accesses(hits+misses)
system.cpu.dcache.SoftPFReq_miss_rate::.cpu.data     0.083333                       # miss rate for SoftPFReq accesses
system.cpu.dcache.SoftPFReq_miss_rate::total     0.083333                       # miss rate for SoftPFReq accesses
system.cpu.dcache.SoftPFReq_mshr_misses::.cpu.data            2                       # number of SoftPFReq MSHR misses
system.cpu.dcache.SoftPFReq_mshr_misses::total            2                       # number of SoftPFReq MSHR misses
system.cpu.dcache.SoftPFReq_mshr_miss_latency::.cpu.data       184500                       # number of SoftPFReq MSHR miss cycles
system.cpu.dcache.SoftPFReq_mshr_miss_latency::total       184500                       # number of SoftPFReq MSHR miss cycles
system.cpu.dcache.SoftPFReq_mshr_miss_rate::.cpu.data     0.083333                       # mshr miss rate for SoftPFReq accesses
system.cpu.dcache.SoftPFReq_mshr_miss_rate::total     0.083333                       # mshr miss rate for SoftPFReq accesses
system.cpu.dcache.SoftPFReq_avg_mshr_miss_latency::.cpu.data        92250                       # average SoftPFReq mshr miss latency
system.cpu.dcache.SoftPFReq_avg_mshr_miss_latency::total        92250                       # average SoftPFReq mshr miss latency
system.cpu.dcache.WriteLineReq_hits::.cpu.data           19                       # number of WriteLineReq hits
system.cpu.dcache.WriteLineReq_hits::total           19                       # number of WriteLineReq hits
system.cpu.dcache.WriteLineReq_misses::.cpu.data          545                       # number of WriteLineReq misses
system.cpu.dcache.WriteLineReq_misses::total          545                       # number of WriteLineReq misses
system.cpu.dcache.WriteLineReq_miss_latency::.cpu.data     17178000                       # number of WriteLineReq miss cycles
system.cpu.dcache.WriteLineReq_miss_latency::total     17178000                       # number of WriteLineReq miss cycles
system.cpu.dcache.WriteLineReq_accesses::.cpu.data          564                       # number of WriteLineReq accesses(hits+misses)
system.cpu.dcache.WriteLineReq_accesses::total          564                       # number of WriteLineReq accesses(hits+misses)
system.cpu.dcache.WriteLineReq_miss_rate::.cpu.data     0.966312                       # miss rate for WriteLineReq accesses
system.cpu.dcache.WriteLineReq_miss_rate::total     0.966312                       # miss rate for WriteLineReq accesses
system.cpu.dcache.WriteLineReq_avg_miss_latency::.cpu.data 31519.266055                       # average WriteLineReq miss latency
system.cpu.dcache.WriteLineReq_avg_miss_latency::total 31519.266055                       # average WriteLineReq miss latency
system.cpu.dcache.WriteLineReq_mshr_misses::.cpu.data          545                       # number of WriteLineReq MSHR misses
system.cpu.dcache.WriteLineReq_mshr_misses::total          545                       # number of WriteLineReq MSHR misses
system.cpu.dcache.WriteLineReq_mshr_miss_latency::.cpu.data     16633000                       # number of WriteLineReq MSHR miss cycles
system.cpu.dcache.WriteLineReq_mshr_miss_latency::total     16633000                       # number of WriteLineReq MSHR miss cycles
system.cpu.dcache.WriteLineReq_mshr_miss_rate::.cpu.data     0.966312                       # mshr miss rate for WriteLineReq accesses
system.cpu.dcache.WriteLineReq_mshr_miss_rate::total     0.966312                       # mshr miss rate for WriteLineReq accesses
system.cpu.dcache.WriteLineReq_avg_mshr_miss_latency::.cpu.data 30519.266055                       # average WriteLineReq mshr miss latency
system.cpu.dcache.WriteLineReq_avg_mshr_miss_latency::total 30519.266055                       # average WriteLineReq mshr miss latency
system.cpu.dcache.LoadLockedReq_hits::.cpu.data           48                       # number of LoadLockedReq hits
system.cpu.dcache.LoadLockedReq_hits::total           48                       # number of LoadLockedReq hits
system.cpu.dcache.LoadLockedReq_accesses::.cpu.data           48                       # number of LoadLockedReq accesses(hits+misses)
system.cpu.dcache.LoadLockedReq_accesses::total           48                       # number of LoadLockedReq accesses(hits+misses)
system.cpu.dcache.StoreCondReq_hits::.cpu.data           48                       # number of StoreCondReq hits
system.cpu.dcache.StoreCondReq_hits::total           48                       # number of StoreCondReq hits
system.cpu.dcache.StoreCondReq_accesses::.cpu.data           48                       # number of StoreCondReq accesses(hits+misses)
system.cpu.dcache.StoreCondReq_accesses::total           48                       # number of StoreCondReq accesses(hits+misses)
system.cpu.dcache.power_state.pwrStateResidencyTicks::UNDEFINED  81825606000                       # Cumulative time (in ticks) in various power states
system.cpu.dcache.tags.tagsinuse          1017.008869                       # Cycle average of tags in use
system.cpu.dcache.tags.total_refs            31818244                       # Total number of references to valid blocks.
system.cpu.dcache.tags.sampled_refs             32529                       # Sample count of references to valid blocks.
system.cpu.dcache.tags.avg_refs            978.150081                       # Average number of references to valid blocks.
system.cpu.dcache.tags.warmup_cycle            177500                       # Cycle when the warmup percentage was hit.
system.cpu.dcache.tags.occ_blocks::.cpu.data  1017.008869                       # Average occupied blocks per requestor
system.cpu.dcache.tags.occ_percent::.cpu.data     0.993173                       # Average percentage of cache occupancy
system.cpu.dcache.tags.occ_percent::total     0.993173                       # Average percentage of cache occupancy
system.cpu.dcache.tags.occ_task_id_blocks::1024         1020                       # Occupied blocks per task id
system.cpu.dcache.tags.age_task_id_blocks_1024::0            4                       # Occupied blocks per task id
system.cpu.dcache.tags.age_task_id_blocks_1024::4         1016                       # Occupied blocks per task id
system.cpu.dcache.tags.occ_task_id_percent::1024     0.996094                       # Percentage of cache occupancy per task id
system.cpu.dcache.tags.tag_accesses          63670821                       # Number of tag accesses
system.cpu.dcache.tags.data_accesses         63670821                       # Number of data accesses
system.cpu.dcache.tags.power_state.pwrStateResidencyTicks::UNDEFINED  81825606000                       # Cumulative time (in ticks) in various power states
system.cpu.power_state.pwrStateResidencyTicks::ON  81825606000                       # Cumulative time (in ticks) in various power states
system.cpu.itb.walker.power_state.pwrStateResidencyTicks::UNDEFINED  81825606000                       # Cumulative time (in ticks) in various power states
system.cpu.itb.stage2_mmu.stage2_tlb.walker.power_state.pwrStateResidencyTicks::UNDEFINED  81825606000                       # Cumulative time (in ticks) in various power states

---------- End Simulation Statistics   ----------
