
---------- Begin Simulation Statistics ----------
final_tick                               1359202522000                       # Number of ticks from beginning of simulation (restored from checkpoints and never reset)
host_inst_rate                                 327217                       # Simulator instruction rate (inst/s)
host_mem_usage                                4574856                       # Number of bytes of host memory used
host_op_rate                                   634056                       # Simulator op (including micro ops) rate (op/s)
host_seconds                                  3972.90                       # Real time elapsed on the host
host_tick_rate                               25982049                       # Simulator tick rate (ticks/s)
sim_freq                                 1000000000000                       # Frequency of simulated ticks
sim_insts                                  1300000006                       # Number of instructions simulated
sim_ops                                    2519041831                       # Number of ops (including micro ops) simulated
sim_seconds                                  0.103224                       # Number of seconds simulated
sim_ticks                                103224153000                       # Number of ticks simulated
system.cpu.committedInsts                           0                       # Number of instructions committed
system.cpu.committedOps                             0                       # Number of ops (including micro ops) committed
system.cpu.dtb.rdAccesses                           0                       # TLB accesses on read requests
system.cpu.dtb.rdMisses                             0                       # TLB misses on read requests
system.cpu.dtb.wrAccesses                           0                       # TLB accesses on write requests
system.cpu.dtb.wrMisses                             0                       # TLB misses on write requests
system.cpu.idle_fraction                            0                       # Percentage of idle cycles
system.cpu.itb.rdAccesses                           0                       # TLB accesses on read requests
system.cpu.itb.rdMisses                             0                       # TLB misses on read requests
system.cpu.itb.wrAccesses                           0                       # TLB accesses on write requests
system.cpu.itb.wrMisses                             0                       # TLB misses on write requests
system.cpu.not_idle_fraction                        1                       # Percentage of non-idle cycles
system.cpu.numCycles                                0                       # number of cpu cycles simulated
system.cpu.numWorkItemsCompleted                    0                       # number of work items this cpu completed
system.cpu.numWorkItemsStarted                      0                       # number of work items this cpu started
system.cpu.num_busy_cycles                          0                       # Number of busy cycles
system.cpu.num_conditional_control_insts            0                       # number of instructions that are conditional controls
system.cpu.num_fp_alu_accesses                      0                       # Number of float alu accesses
system.cpu.num_fp_insts                             0                       # number of float instructions
system.cpu.num_fp_register_reads                    0                       # number of times the floating registers were read
system.cpu.num_fp_register_writes                   0                       # number of times the floating registers were written
system.cpu.num_func_calls                           0                       # number of times a function call or return occured
system.cpu.num_idle_cycles                          0                       # Number of idle cycles
system.cpu.num_int_alu_accesses                     0                       # Number of integer alu accesses
system.cpu.num_int_insts                            0                       # number of integer instructions
system.cpu.num_int_register_reads                   0                       # number of times the integer registers were read
system.cpu.num_int_register_writes                  0                       # number of times the integer registers were written
system.cpu.num_load_insts                           0                       # Number of load instructions
system.cpu.num_mem_refs                             0                       # number of memory refs
system.cpu.num_store_insts                          0                       # Number of store instructions
system.cpu.num_vec_alu_accesses                     0                       # Number of vector alu accesses
system.cpu.num_vec_insts                            0                       # number of vector instructions
system.cpu.num_vec_register_reads                   0                       # number of times the vector registers were read
system.cpu.num_vec_register_writes                  0                       # number of times the vector registers were written
system.cpu.op_class::No_OpClass                     0                       # Class of executed instruction
system.cpu.op_class::IntAlu                         0                       # Class of executed instruction
system.cpu.op_class::IntMult                        0                       # Class of executed instruction
system.cpu.op_class::IntDiv                         0                       # Class of executed instruction
system.cpu.op_class::FloatAdd                       0                       # Class of executed instruction
system.cpu.op_class::FloatCmp                       0                       # Class of executed instruction
system.cpu.op_class::FloatCvt                       0                       # Class of executed instruction
system.cpu.op_class::FloatMult                      0                       # Class of executed instruction
system.cpu.op_class::FloatMultAcc                   0                       # Class of executed instruction
system.cpu.op_class::FloatDiv                       0                       # Class of executed instruction
system.cpu.op_class::FloatMisc                      0                       # Class of executed instruction
system.cpu.op_class::FloatSqrt                      0                       # Class of executed instruction
system.cpu.op_class::SimdAdd                        0                       # Class of executed instruction
system.cpu.op_class::SimdAddAcc                     0                       # Class of executed instruction
system.cpu.op_class::SimdAlu                        0                       # Class of executed instruction
system.cpu.op_class::SimdCmp                        0                       # Class of executed instruction
system.cpu.op_class::SimdCvt                        0                       # Class of executed instruction
system.cpu.op_class::SimdMisc                       0                       # Class of executed instruction
system.cpu.op_class::SimdMult                       0                       # Class of executed instruction
system.cpu.op_class::SimdMultAcc                    0                       # Class of executed instruction
system.cpu.op_class::SimdShift                      0                       # Class of executed instruction
system.cpu.op_class::SimdShiftAcc                   0                       # Class of executed instruction
system.cpu.op_class::SimdDiv                        0                       # Class of executed instruction
system.cpu.op_class::SimdSqrt                       0                       # Class of executed instruction
system.cpu.op_class::SimdFloatAdd                   0                       # Class of executed instruction
system.cpu.op_class::SimdFloatAlu                   0                       # Class of executed instruction
system.cpu.op_class::SimdFloatCmp                   0                       # Class of executed instruction
system.cpu.op_class::SimdFloatCvt                   0                       # Class of executed instruction
system.cpu.op_class::SimdFloatDiv                   0                       # Class of executed instruction
system.cpu.op_class::SimdFloatMisc                  0                       # Class of executed instruction
system.cpu.op_class::SimdFloatMult                  0                       # Class of executed instruction
system.cpu.op_class::SimdFloatMultAcc               0                       # Class of executed instruction
system.cpu.op_class::SimdFloatSqrt                  0                       # Class of executed instruction
system.cpu.op_class::SimdReduceAdd                  0                       # Class of executed instruction
system.cpu.op_class::SimdReduceAlu                  0                       # Class of executed instruction
system.cpu.op_class::SimdReduceCmp                  0                       # Class of executed instruction
system.cpu.op_class::SimdFloatReduceAdd             0                       # Class of executed instruction
system.cpu.op_class::SimdFloatReduceCmp             0                       # Class of executed instruction
system.cpu.op_class::SimdAes                        0                       # Class of executed instruction
system.cpu.op_class::SimdAesMix                     0                       # Class of executed instruction
system.cpu.op_class::SimdSha1Hash                   0                       # Class of executed instruction
system.cpu.op_class::SimdSha1Hash2                  0                       # Class of executed instruction
system.cpu.op_class::SimdSha256Hash                 0                       # Class of executed instruction
system.cpu.op_class::SimdSha256Hash2                0                       # Class of executed instruction
system.cpu.op_class::SimdShaSigma2                  0                       # Class of executed instruction
system.cpu.op_class::SimdShaSigma3                  0                       # Class of executed instruction
system.cpu.op_class::SimdPredAlu                    0                       # Class of executed instruction
system.cpu.op_class::MemRead                        0                       # Class of executed instruction
system.cpu.op_class::MemWrite                       0                       # Class of executed instruction
system.cpu.op_class::FloatMemRead                   0                       # Class of executed instruction
system.cpu.op_class::FloatMemWrite                  0                       # Class of executed instruction
system.cpu.op_class::IprAccess                      0                       # Class of executed instruction
system.cpu.op_class::InstPrefetch                   0                       # Class of executed instruction
system.cpu.op_class::total                          0                       # Class of executed instruction
system.cpu.workload.numSyscalls                   239                       # Number of system calls
system.membus.snoop_filter.hit_multi_requests            0                       # Number of requests hitting in the snoop filter with multiple (>1) holders of the requested data.
system.membus.snoop_filter.hit_multi_snoops            0                       # Number of snoops hitting in the snoop filter with multiple (>1) holders of the requested data.
system.membus.snoop_filter.hit_single_requests        47371                       # Number of requests hitting in the snoop filter with a single holder of the requested data.
system.membus.snoop_filter.hit_single_snoops            0                       # Number of snoops hitting in the snoop filter with a single holder of the requested data.
system.membus.snoop_filter.tot_requests         94410                       # Total number of requests made to the snoop filter.
system.membus.snoop_filter.tot_snoops               0                       # Total number of snoops made to the snoop filter.
system.switch_cpus.committedInsts                   0                       # Number of instructions committed
system.switch_cpus.committedOps                     0                       # Number of ops (including micro ops) committed
system.switch_cpus.dtb.rdAccesses                   0                       # TLB accesses on read requests
system.switch_cpus.dtb.rdMisses                     0                       # TLB misses on read requests
system.switch_cpus.dtb.wrAccesses                   0                       # TLB accesses on write requests
system.switch_cpus.dtb.wrMisses                     0                       # TLB misses on write requests
system.switch_cpus.idle_fraction                    0                       # Percentage of idle cycles
system.switch_cpus.itb.rdAccesses                   0                       # TLB accesses on read requests
system.switch_cpus.itb.rdMisses                     0                       # TLB misses on read requests
system.switch_cpus.itb.wrAccesses                   0                       # TLB accesses on write requests
system.switch_cpus.itb.wrMisses                     0                       # TLB misses on write requests
system.switch_cpus.not_idle_fraction                1                       # Percentage of non-idle cycles
system.switch_cpus.numCycles                        0                       # number of cpu cycles simulated
system.switch_cpus.numWorkItemsCompleted            0                       # number of work items this cpu completed
system.switch_cpus.numWorkItemsStarted              0                       # number of work items this cpu started
system.switch_cpus.num_busy_cycles                  0                       # Number of busy cycles
system.switch_cpus.num_conditional_control_insts            0                       # number of instructions that are conditional controls
system.switch_cpus.num_fp_alu_accesses              0                       # Number of float alu accesses
system.switch_cpus.num_fp_insts                     0                       # number of float instructions
system.switch_cpus.num_fp_register_reads            0                       # number of times the floating registers were read
system.switch_cpus.num_fp_register_writes            0                       # number of times the floating registers were written
system.switch_cpus.num_func_calls                   0                       # number of times a function call or return occured
system.switch_cpus.num_idle_cycles                  0                       # Number of idle cycles
system.switch_cpus.num_int_alu_accesses             0                       # Number of integer alu accesses
system.switch_cpus.num_int_insts                    0                       # number of integer instructions
system.switch_cpus.num_int_register_reads            0                       # number of times the integer registers were read
system.switch_cpus.num_int_register_writes            0                       # number of times the integer registers were written
system.switch_cpus.num_load_insts                   0                       # Number of load instructions
system.switch_cpus.num_mem_refs                     0                       # number of memory refs
system.switch_cpus.num_store_insts                  0                       # Number of store instructions
system.switch_cpus.num_vec_alu_accesses             0                       # Number of vector alu accesses
system.switch_cpus.num_vec_insts                    0                       # number of vector instructions
system.switch_cpus.num_vec_register_reads            0                       # number of times the vector registers were read
system.switch_cpus.num_vec_register_writes            0                       # number of times the vector registers were written
system.switch_cpus.op_class::No_OpClass             0                       # Class of executed instruction
system.switch_cpus.op_class::IntAlu                 0                       # Class of executed instruction
system.switch_cpus.op_class::IntMult                0                       # Class of executed instruction
system.switch_cpus.op_class::IntDiv                 0                       # Class of executed instruction
system.switch_cpus.op_class::FloatAdd               0                       # Class of executed instruction
system.switch_cpus.op_class::FloatCmp               0                       # Class of executed instruction
system.switch_cpus.op_class::FloatCvt               0                       # Class of executed instruction
system.switch_cpus.op_class::FloatMult              0                       # Class of executed instruction
system.switch_cpus.op_class::FloatMultAcc            0                       # Class of executed instruction
system.switch_cpus.op_class::FloatDiv               0                       # Class of executed instruction
system.switch_cpus.op_class::FloatMisc              0                       # Class of executed instruction
system.switch_cpus.op_class::FloatSqrt              0                       # Class of executed instruction
system.switch_cpus.op_class::SimdAdd                0                       # Class of executed instruction
system.switch_cpus.op_class::SimdAddAcc             0                       # Class of executed instruction
system.switch_cpus.op_class::SimdAlu                0                       # Class of executed instruction
system.switch_cpus.op_class::SimdCmp                0                       # Class of executed instruction
system.switch_cpus.op_class::SimdCvt                0                       # Class of executed instruction
system.switch_cpus.op_class::SimdMisc               0                       # Class of executed instruction
system.switch_cpus.op_class::SimdMult               0                       # Class of executed instruction
system.switch_cpus.op_class::SimdMultAcc            0                       # Class of executed instruction
system.switch_cpus.op_class::SimdShift              0                       # Class of executed instruction
system.switch_cpus.op_class::SimdShiftAcc            0                       # Class of executed instruction
system.switch_cpus.op_class::SimdDiv                0                       # Class of executed instruction
system.switch_cpus.op_class::SimdSqrt               0                       # Class of executed instruction
system.switch_cpus.op_class::SimdFloatAdd            0                       # Class of executed instruction
system.switch_cpus.op_class::SimdFloatAlu            0                       # Class of executed instruction
system.switch_cpus.op_class::SimdFloatCmp            0                       # Class of executed instruction
system.switch_cpus.op_class::SimdFloatCvt            0                       # Class of executed instruction
system.switch_cpus.op_class::SimdFloatDiv            0                       # Class of executed instruction
system.switch_cpus.op_class::SimdFloatMisc            0                       # Class of executed instruction
system.switch_cpus.op_class::SimdFloatMult            0                       # Class of executed instruction
system.switch_cpus.op_class::SimdFloatMultAcc            0                       # Class of executed instruction
system.switch_cpus.op_class::SimdFloatSqrt            0                       # Class of executed instruction
system.switch_cpus.op_class::SimdReduceAdd            0                       # Class of executed instruction
system.switch_cpus.op_class::SimdReduceAlu            0                       # Class of executed instruction
system.switch_cpus.op_class::SimdReduceCmp            0                       # Class of executed instruction
system.switch_cpus.op_class::SimdFloatReduceAdd            0                       # Class of executed instruction
system.switch_cpus.op_class::SimdFloatReduceCmp            0                       # Class of executed instruction
system.switch_cpus.op_class::SimdAes                0                       # Class of executed instruction
system.switch_cpus.op_class::SimdAesMix             0                       # Class of executed instruction
system.switch_cpus.op_class::SimdSha1Hash            0                       # Class of executed instruction
system.switch_cpus.op_class::SimdSha1Hash2            0                       # Class of executed instruction
system.switch_cpus.op_class::SimdSha256Hash            0                       # Class of executed instruction
system.switch_cpus.op_class::SimdSha256Hash2            0                       # Class of executed instruction
system.switch_cpus.op_class::SimdShaSigma2            0                       # Class of executed instruction
system.switch_cpus.op_class::SimdShaSigma3            0                       # Class of executed instruction
system.switch_cpus.op_class::SimdPredAlu            0                       # Class of executed instruction
system.switch_cpus.op_class::MemRead                0                       # Class of executed instruction
system.switch_cpus.op_class::MemWrite               0                       # Class of executed instruction
system.switch_cpus.op_class::FloatMemRead            0                       # Class of executed instruction
system.switch_cpus.op_class::FloatMemWrite            0                       # Class of executed instruction
system.switch_cpus.op_class::IprAccess              0                       # Class of executed instruction
system.switch_cpus.op_class::InstPrefetch            0                       # Class of executed instruction
system.switch_cpus.op_class::total                  0                       # Class of executed instruction
system.switch_cpus_1.branchPred.BTBCorrect            0                       # Number of correct BTB predictions (this stat may not work properly.
system.switch_cpus_1.branchPred.BTBHitPct          nan                       # BTB Hit Percentage
system.switch_cpus_1.branchPred.BTBHits             0                       # Number of BTB hits
system.switch_cpus_1.branchPred.BTBLookups            0                       # Number of BTB lookups
system.switch_cpus_1.branchPred.RASInCorrect          398                       # Number of incorrect RAS predictions.
system.switch_cpus_1.branchPred.condIncorrect      6189906                       # Number of conditional branches incorrect
system.switch_cpus_1.branchPred.condPredicted     86847788                       # Number of conditional branches predicted
system.switch_cpus_1.branchPred.indirectHits     25213739                       # Number of indirect target hits.
system.switch_cpus_1.branchPred.indirectLookups     40238202                       # Number of indirect predictor lookups.
system.switch_cpus_1.branchPred.indirectMisses     15024463                       # Number of indirect misses.
system.switch_cpus_1.branchPred.lookups      94883010                       # Number of BP lookups
system.switch_cpus_1.branchPred.usedRAS       3138920                       # Number of times the RAS was used to get a target.
system.switch_cpus_1.branchPredindirectMispredicted      5031408                       # Number of mispredicted indirect branches.
system.switch_cpus_1.cc_regfile_reads       354136094                       # number of cc regfile reads
system.switch_cpus_1.cc_regfile_writes      185051772                       # number of cc regfile writes
system.switch_cpus_1.commit.amos                    0                       # Number of atomic instructions committed
system.switch_cpus_1.commit.branchMispredicts      6231398                       # The number of times a branch was mispredicted
system.switch_cpus_1.commit.branches         58832436                       # Number of branches committed
system.switch_cpus_1.commit.bw_lim_events     28967673                       # number cycles where commit BW limit reached
system.switch_cpus_1.commit.commitNonSpecStalls          239                       # The number of times commit has been forced to stall to communicate backwards
system.switch_cpus_1.commit.commitSquashedInsts    174444133                       # The number of squashed insts skipped by commit
system.switch_cpus_1.commit.committedInsts    250000004                       # Number of instructions committed
system.switch_cpus_1.commit.committedOps    485171795                       # Number of ops (including micro ops) committed
system.switch_cpus_1.commit.committed_per_cycle::samples    180072225                       # Number of insts commited each cycle
system.switch_cpus_1.commit.committed_per_cycle::mean     2.694318                       # Number of insts commited each cycle
system.switch_cpus_1.commit.committed_per_cycle::stdev     2.902477                       # Number of insts commited each cycle
system.switch_cpus_1.commit.committed_per_cycle::underflows            0      0.00%      0.00% # Number of insts commited each cycle
system.switch_cpus_1.commit.committed_per_cycle::0     60439276     33.56%     33.56% # Number of insts commited each cycle
system.switch_cpus_1.commit.committed_per_cycle::1     27341281     15.18%     48.75% # Number of insts commited each cycle
system.switch_cpus_1.commit.committed_per_cycle::2     17189087      9.55%     58.29% # Number of insts commited each cycle
system.switch_cpus_1.commit.committed_per_cycle::3     20540612     11.41%     69.70% # Number of insts commited each cycle
system.switch_cpus_1.commit.committed_per_cycle::4      9737202      5.41%     75.11% # Number of insts commited each cycle
system.switch_cpus_1.commit.committed_per_cycle::5      7343549      4.08%     79.19% # Number of insts commited each cycle
system.switch_cpus_1.commit.committed_per_cycle::6      5172248      2.87%     82.06% # Number of insts commited each cycle
system.switch_cpus_1.commit.committed_per_cycle::7      3341297      1.86%     83.91% # Number of insts commited each cycle
system.switch_cpus_1.commit.committed_per_cycle::8     28967673     16.09%    100.00% # Number of insts commited each cycle
system.switch_cpus_1.commit.committed_per_cycle::overflows            0      0.00%    100.00% # Number of insts commited each cycle
system.switch_cpus_1.commit.committed_per_cycle::min_value            0                       # Number of insts commited each cycle
system.switch_cpus_1.commit.committed_per_cycle::max_value            8                       # Number of insts commited each cycle
system.switch_cpus_1.commit.committed_per_cycle::total    180072225                       # Number of insts commited each cycle
system.switch_cpus_1.commit.fp_insts          2509809                       # Number of committed floating point instructions.
system.switch_cpus_1.commit.function_calls      2333728                       # Number of function calls committed.
system.switch_cpus_1.commit.int_insts       481181977                       # Number of committed integer instructions.
system.switch_cpus_1.commit.loads            55985773                       # Number of loads committed
system.switch_cpus_1.commit.membars                 0                       # Number of memory barriers committed
system.switch_cpus_1.commit.op_class_0::No_OpClass      2560040      0.53%      0.53% # Class of committed instruction
system.switch_cpus_1.commit.op_class_0::IntAlu    390902642     80.57%     81.10% # Class of committed instruction
system.switch_cpus_1.commit.op_class_0::IntMult       420287      0.09%     81.18% # Class of committed instruction
system.switch_cpus_1.commit.op_class_0::IntDiv      3933063      0.81%     81.99% # Class of committed instruction
system.switch_cpus_1.commit.op_class_0::FloatAdd       374648      0.08%     82.07% # Class of committed instruction
system.switch_cpus_1.commit.op_class_0::FloatCmp            0      0.00%     82.07% # Class of committed instruction
system.switch_cpus_1.commit.op_class_0::FloatCvt            0      0.00%     82.07% # Class of committed instruction
system.switch_cpus_1.commit.op_class_0::FloatMult            0      0.00%     82.07% # Class of committed instruction
system.switch_cpus_1.commit.op_class_0::FloatMultAcc            0      0.00%     82.07% # Class of committed instruction
system.switch_cpus_1.commit.op_class_0::FloatDiv            0      0.00%     82.07% # Class of committed instruction
system.switch_cpus_1.commit.op_class_0::FloatMisc            0      0.00%     82.07% # Class of committed instruction
system.switch_cpus_1.commit.op_class_0::FloatSqrt            0      0.00%     82.07% # Class of committed instruction
system.switch_cpus_1.commit.op_class_0::SimdAdd            0      0.00%     82.07% # Class of committed instruction
system.switch_cpus_1.commit.op_class_0::SimdAddAcc            0      0.00%     82.07% # Class of committed instruction
system.switch_cpus_1.commit.op_class_0::SimdAlu       303362      0.06%     82.13% # Class of committed instruction
system.switch_cpus_1.commit.op_class_0::SimdCmp            0      0.00%     82.13% # Class of committed instruction
system.switch_cpus_1.commit.op_class_0::SimdCvt       231180      0.05%     82.18% # Class of committed instruction
system.switch_cpus_1.commit.op_class_0::SimdMisc       231810      0.05%     82.23% # Class of committed instruction
system.switch_cpus_1.commit.op_class_0::SimdMult            0      0.00%     82.23% # Class of committed instruction
system.switch_cpus_1.commit.op_class_0::SimdMultAcc            0      0.00%     82.23% # Class of committed instruction
system.switch_cpus_1.commit.op_class_0::SimdShift            0      0.00%     82.23% # Class of committed instruction
system.switch_cpus_1.commit.op_class_0::SimdShiftAcc            0      0.00%     82.23% # Class of committed instruction
system.switch_cpus_1.commit.op_class_0::SimdDiv            0      0.00%     82.23% # Class of committed instruction
system.switch_cpus_1.commit.op_class_0::SimdSqrt            0      0.00%     82.23% # Class of committed instruction
system.switch_cpus_1.commit.op_class_0::SimdFloatAdd            0      0.00%     82.23% # Class of committed instruction
system.switch_cpus_1.commit.op_class_0::SimdFloatAlu            0      0.00%     82.23% # Class of committed instruction
system.switch_cpus_1.commit.op_class_0::SimdFloatCmp            0      0.00%     82.23% # Class of committed instruction
system.switch_cpus_1.commit.op_class_0::SimdFloatCvt        57742      0.01%     82.24% # Class of committed instruction
system.switch_cpus_1.commit.op_class_0::SimdFloatDiv            0      0.00%     82.24% # Class of committed instruction
system.switch_cpus_1.commit.op_class_0::SimdFloatMisc            0      0.00%     82.24% # Class of committed instruction
system.switch_cpus_1.commit.op_class_0::SimdFloatMult            0      0.00%     82.24% # Class of committed instruction
system.switch_cpus_1.commit.op_class_0::SimdFloatMultAcc            0      0.00%     82.24% # Class of committed instruction
system.switch_cpus_1.commit.op_class_0::SimdFloatSqrt            0      0.00%     82.24% # Class of committed instruction
system.switch_cpus_1.commit.op_class_0::SimdReduceAdd            0      0.00%     82.24% # Class of committed instruction
system.switch_cpus_1.commit.op_class_0::SimdReduceAlu            0      0.00%     82.24% # Class of committed instruction
system.switch_cpus_1.commit.op_class_0::SimdReduceCmp            0      0.00%     82.24% # Class of committed instruction
system.switch_cpus_1.commit.op_class_0::SimdFloatReduceAdd            0      0.00%     82.24% # Class of committed instruction
system.switch_cpus_1.commit.op_class_0::SimdFloatReduceCmp            0      0.00%     82.24% # Class of committed instruction
system.switch_cpus_1.commit.op_class_0::SimdAes            0      0.00%     82.24% # Class of committed instruction
system.switch_cpus_1.commit.op_class_0::SimdAesMix            0      0.00%     82.24% # Class of committed instruction
system.switch_cpus_1.commit.op_class_0::SimdSha1Hash            0      0.00%     82.24% # Class of committed instruction
system.switch_cpus_1.commit.op_class_0::SimdSha1Hash2            0      0.00%     82.24% # Class of committed instruction
system.switch_cpus_1.commit.op_class_0::SimdSha256Hash            0      0.00%     82.24% # Class of committed instruction
system.switch_cpus_1.commit.op_class_0::SimdSha256Hash2            0      0.00%     82.24% # Class of committed instruction
system.switch_cpus_1.commit.op_class_0::SimdShaSigma2            0      0.00%     82.24% # Class of committed instruction
system.switch_cpus_1.commit.op_class_0::SimdShaSigma3            0      0.00%     82.24% # Class of committed instruction
system.switch_cpus_1.commit.op_class_0::SimdPredAlu            0      0.00%     82.24% # Class of committed instruction
system.switch_cpus_1.commit.op_class_0::MemRead     55336528     11.41%     93.65% # Class of committed instruction
system.switch_cpus_1.commit.op_class_0::MemWrite     29509516      6.08%     99.73% # Class of committed instruction
system.switch_cpus_1.commit.op_class_0::FloatMemRead       649245      0.13%     99.86% # Class of committed instruction
system.switch_cpus_1.commit.op_class_0::FloatMemWrite       661732      0.14%    100.00% # Class of committed instruction
system.switch_cpus_1.commit.op_class_0::IprAccess            0      0.00%    100.00% # Class of committed instruction
system.switch_cpus_1.commit.op_class_0::InstPrefetch            0      0.00%    100.00% # Class of committed instruction
system.switch_cpus_1.commit.op_class_0::total    485171795                       # Class of committed instruction
system.switch_cpus_1.commit.refs             86157021                       # Number of memory references committed
system.switch_cpus_1.commit.swp_count               0                       # Number of s/w prefetches committed
system.switch_cpus_1.commit.vec_insts               0                       # Number of committed Vector instructions.
system.switch_cpus_1.committedInsts         250000004                       # Number of Instructions Simulated
system.switch_cpus_1.committedOps           485171795                       # Number of Ops (including micro ops) Simulated
system.switch_cpus_1.cpi                     0.825793                       # CPI: Cycles Per Instruction
system.switch_cpus_1.cpi_total               0.825793                       # CPI: Total CPI of All Threads
system.switch_cpus_1.decode.BlockedCycles     31226097                       # Number of cycles decode is blocked
system.switch_cpus_1.decode.DecodedInsts    752113070                       # Number of instructions handled by decode
system.switch_cpus_1.decode.IdleCycles       55801767                       # Number of cycles decode is idle
system.switch_cpus_1.decode.RunCycles       107670468                       # Number of cycles decode is running
system.switch_cpus_1.decode.SquashCycles      6240249                       # Number of cycles decode is squashing
system.switch_cpus_1.decode.UnblockCycles      5446823                       # Number of cycles decode is unblocking
system.switch_cpus_1.dtb.rdAccesses          69072933                       # TLB accesses on read requests
system.switch_cpus_1.dtb.rdMisses              230275                       # TLB misses on read requests
system.switch_cpus_1.dtb.wrAccesses          33511824                       # TLB accesses on write requests
system.switch_cpus_1.dtb.wrMisses               35386                       # TLB misses on write requests
system.switch_cpus_1.fetch.Branches          94883010                       # Number of branches that fetch encountered
system.switch_cpus_1.fetch.CacheLines        55673953                       # Number of cache lines fetched
system.switch_cpus_1.fetch.Cycles           139172824                       # Number of cycles fetch has run and was not squashing or blocked
system.switch_cpus_1.fetch.IcacheSquashes      1686812                       # Number of outstanding Icache misses that were squashed
system.switch_cpus_1.fetch.IcacheWaitRetryStallCycles          214                       # Number of stall cycles due to full MSHR
system.switch_cpus_1.fetch.Insts            414778220                       # Number of instructions fetch has processed
system.switch_cpus_1.fetch.MiscStallCycles        36542                       # Number of cycles fetch has spent waiting on interrupts, or bad addresses, or out of MSHRs
system.switch_cpus_1.fetch.PendingTrapStallCycles       332120                       # Number of stall cycles due to pending traps
system.switch_cpus_1.fetch.SquashCycles      12480498                       # Number of cycles fetch has spent squashing
system.switch_cpus_1.fetch.TlbCycles               16                       # Number of cycles fetch has spent waiting for tlb
system.switch_cpus_1.fetch.branchRate        0.459597                       # Number of branch fetches per cycle
system.switch_cpus_1.fetch.icacheStallCycles     60603449                       # Number of cycles fetch is stalled on an Icache miss
system.switch_cpus_1.fetch.predictedBranches     28352659                       # Number of branches that fetch has predicted taken
system.switch_cpus_1.fetch.rate              2.009114                       # Number of inst fetches per cycle
system.switch_cpus_1.fetch.rateDist::samples    206385414                       # Number of instructions fetched each cycle (Total)
system.switch_cpus_1.fetch.rateDist::mean     3.828950                       # Number of instructions fetched each cycle (Total)
system.switch_cpus_1.fetch.rateDist::stdev     3.627834                       # Number of instructions fetched each cycle (Total)
system.switch_cpus_1.fetch.rateDist::underflows            0      0.00%      0.00% # Number of instructions fetched each cycle (Total)
system.switch_cpus_1.fetch.rateDist::0       83333871     40.38%     40.38% # Number of instructions fetched each cycle (Total)
system.switch_cpus_1.fetch.rateDist::1        6022427      2.92%     43.30% # Number of instructions fetched each cycle (Total)
system.switch_cpus_1.fetch.rateDist::2        8254724      4.00%     47.30% # Number of instructions fetched each cycle (Total)
system.switch_cpus_1.fetch.rateDist::3        6864863      3.33%     50.62% # Number of instructions fetched each cycle (Total)
system.switch_cpus_1.fetch.rateDist::4        6665379      3.23%     53.85% # Number of instructions fetched each cycle (Total)
system.switch_cpus_1.fetch.rateDist::5        8325478      4.03%     57.89% # Number of instructions fetched each cycle (Total)
system.switch_cpus_1.fetch.rateDist::6        5769404      2.80%     60.68% # Number of instructions fetched each cycle (Total)
system.switch_cpus_1.fetch.rateDist::7        4986456      2.42%     63.10% # Number of instructions fetched each cycle (Total)
system.switch_cpus_1.fetch.rateDist::8       76162812     36.90%    100.00% # Number of instructions fetched each cycle (Total)
system.switch_cpus_1.fetch.rateDist::overflows            0      0.00%    100.00% # Number of instructions fetched each cycle (Total)
system.switch_cpus_1.fetch.rateDist::min_value            0                       # Number of instructions fetched each cycle (Total)
system.switch_cpus_1.fetch.rateDist::max_value            8                       # Number of instructions fetched each cycle (Total)
system.switch_cpus_1.fetch.rateDist::total    206385414                       # Number of instructions fetched each cycle (Total)
system.switch_cpus_1.fp_regfile_reads         2411653                       # number of floating regfile reads
system.switch_cpus_1.fp_regfile_writes        1672664                       # number of floating regfile writes
system.switch_cpus_1.idleCycles                 62892                       # Total number of cycles that the CPU has spent unscheduled due to idling
system.switch_cpus_1.iew.branchMispredicts      8588855                       # Number of branch mispredicts detected at execute
system.switch_cpus_1.iew.exec_branches       67181696                       # Number of branches executed
system.switch_cpus_1.iew.exec_nop                   0                       # number of nop insts executed
system.switch_cpus_1.iew.exec_rate           2.830911                       # Inst execution rate
system.switch_cpus_1.iew.exec_refs          102575144                       # number of memory reference insts executed
system.switch_cpus_1.iew.exec_stores         33511824                       # Number of stores executed
system.switch_cpus_1.iew.exec_swp                   0                       # number of swp insts executed
system.switch_cpus_1.iew.iewBlockCycles      20093463                       # Number of cycles IEW is blocking
system.switch_cpus_1.iew.iewDispLoadInsts     77371507                       # Number of dispatched load instructions
system.switch_cpus_1.iew.iewDispNonSpecInsts        27183                       # Number of dispatched non-speculative instructions
system.switch_cpus_1.iew.iewDispSquashedInsts       642651                       # Number of squashed instructions skipped by dispatch
system.switch_cpus_1.iew.iewDispStoreInsts     39382999                       # Number of dispatched store instructions
system.switch_cpus_1.iew.iewDispatchedInsts    659626273                       # Number of instructions dispatched to IQ
system.switch_cpus_1.iew.iewExecLoadInsts     69063320                       # Number of load instructions executed
system.switch_cpus_1.iew.iewExecSquashedInsts     15682132                       # Number of squashed instructions skipped in execute
system.switch_cpus_1.iew.iewExecutedInsts    584436700                       # Number of executed instructions
system.switch_cpus_1.iew.iewIQFullEvents         2713                       # Number of times the IQ has become full, causing a stall
system.switch_cpus_1.iew.iewIdleCycles              0                       # Number of cycles IEW is idle
system.switch_cpus_1.iew.iewLSQFullEvents       590589                       # Number of times the LSQ has become full, causing a stall
system.switch_cpus_1.iew.iewSquashCycles      6240249                       # Number of cycles IEW is squashing
system.switch_cpus_1.iew.iewUnblockCycles       594566                       # Number of cycles IEW is unblocking
system.switch_cpus_1.iew.lsq.thread0.blockedLoads            0                       # Number of blocked loads due to partial load-store forwarding
system.switch_cpus_1.iew.lsq.thread0.cacheBlocked          232                       # Number of times an access to memory failed due to the cache being blocked
system.switch_cpus_1.iew.lsq.thread0.forwLoads      8938711                       # Number of loads that had data forwarded from stores
system.switch_cpus_1.iew.lsq.thread0.ignoredResponses        35217                       # Number of memory responses ignored because the instruction is squashed
system.switch_cpus_1.iew.lsq.thread0.invAddrLoads            0                       # Number of loads ignored due to an invalid address
system.switch_cpus_1.iew.lsq.thread0.invAddrSwpfs            0                       # Number of software prefetches ignored due to an invalid address
system.switch_cpus_1.iew.lsq.thread0.memOrderViolation        31890                       # Number of memory ordering violations
system.switch_cpus_1.iew.lsq.thread0.rescheduledLoads        30355                       # Number of loads that were rescheduled
system.switch_cpus_1.iew.lsq.thread0.squashedLoads     21385727                       # Number of loads squashed
system.switch_cpus_1.iew.lsq.thread0.squashedStores      9211749                       # Number of stores squashed
system.switch_cpus_1.iew.memOrderViolationEvents        31890                       # Number of memory order violations
system.switch_cpus_1.iew.predictedNotTakenIncorrect      8141809                       # Number of branches that were predicted not taken incorrectly
system.switch_cpus_1.iew.predictedTakenIncorrect       447046                       # Number of branches that were predicted taken incorrectly
system.switch_cpus_1.iew.wb_consumers       682454444                       # num instructions consuming a value
system.switch_cpus_1.iew.wb_count           578302995                       # cumulative count of insts written-back
system.switch_cpus_1.iew.wb_fanout           0.622860                       # average fanout of values written-back
system.switch_cpus_1.iew.wb_producers       425073336                       # num instructions producing a value
system.switch_cpus_1.iew.wb_rate             2.801200                       # insts written-back per cycle
system.switch_cpus_1.iew.wb_sent            580938468                       # cumulative count of insts sent to commit
system.switch_cpus_1.int_regfile_reads      855280101                       # number of integer regfile reads
system.switch_cpus_1.int_regfile_writes     483184142                       # number of integer regfile writes
system.switch_cpus_1.ipc                     1.210957                       # IPC: Instructions Per Cycle
system.switch_cpus_1.ipc_total               1.210957                       # IPC: Total IPC of All Threads
system.switch_cpus_1.iq.FU_type_0::No_OpClass      4882978      0.81%      0.81% # Type of FU issued
system.switch_cpus_1.iq.FU_type_0::IntAlu    482435720     80.39%     81.20% # Type of FU issued
system.switch_cpus_1.iq.FU_type_0::IntMult       430888      0.07%     81.28% # Type of FU issued
system.switch_cpus_1.iq.FU_type_0::IntDiv      4185075      0.70%     81.97% # Type of FU issued
system.switch_cpus_1.iq.FU_type_0::FloatAdd       432377      0.07%     82.04% # Type of FU issued
system.switch_cpus_1.iq.FU_type_0::FloatCmp            0      0.00%     82.04% # Type of FU issued
system.switch_cpus_1.iq.FU_type_0::FloatCvt          686      0.00%     82.05% # Type of FU issued
system.switch_cpus_1.iq.FU_type_0::FloatMult            0      0.00%     82.05% # Type of FU issued
system.switch_cpus_1.iq.FU_type_0::FloatMultAcc            0      0.00%     82.05% # Type of FU issued
system.switch_cpus_1.iq.FU_type_0::FloatDiv            0      0.00%     82.05% # Type of FU issued
system.switch_cpus_1.iq.FU_type_0::FloatMisc            0      0.00%     82.05% # Type of FU issued
system.switch_cpus_1.iq.FU_type_0::FloatSqrt            0      0.00%     82.05% # Type of FU issued
system.switch_cpus_1.iq.FU_type_0::SimdAdd            0      0.00%     82.05% # Type of FU issued
system.switch_cpus_1.iq.FU_type_0::SimdAddAcc            0      0.00%     82.05% # Type of FU issued
system.switch_cpus_1.iq.FU_type_0::SimdAlu       390058      0.06%     82.11% # Type of FU issued
system.switch_cpus_1.iq.FU_type_0::SimdCmp            0      0.00%     82.11% # Type of FU issued
system.switch_cpus_1.iq.FU_type_0::SimdCvt       231226      0.04%     82.15% # Type of FU issued
system.switch_cpus_1.iq.FU_type_0::SimdMisc       231821      0.04%     82.19% # Type of FU issued
system.switch_cpus_1.iq.FU_type_0::SimdMult            0      0.00%     82.19% # Type of FU issued
system.switch_cpus_1.iq.FU_type_0::SimdMultAcc            0      0.00%     82.19% # Type of FU issued
system.switch_cpus_1.iq.FU_type_0::SimdShift            0      0.00%     82.19% # Type of FU issued
system.switch_cpus_1.iq.FU_type_0::SimdShiftAcc            0      0.00%     82.19% # Type of FU issued
system.switch_cpus_1.iq.FU_type_0::SimdDiv            0      0.00%     82.19% # Type of FU issued
system.switch_cpus_1.iq.FU_type_0::SimdSqrt            0      0.00%     82.19% # Type of FU issued
system.switch_cpus_1.iq.FU_type_0::SimdFloatAdd            0      0.00%     82.19% # Type of FU issued
system.switch_cpus_1.iq.FU_type_0::SimdFloatAlu            0      0.00%     82.19% # Type of FU issued
system.switch_cpus_1.iq.FU_type_0::SimdFloatCmp            0      0.00%     82.19% # Type of FU issued
system.switch_cpus_1.iq.FU_type_0::SimdFloatCvt        57742      0.01%     82.20% # Type of FU issued
system.switch_cpus_1.iq.FU_type_0::SimdFloatDiv            0      0.00%     82.20% # Type of FU issued
system.switch_cpus_1.iq.FU_type_0::SimdFloatMisc            0      0.00%     82.20% # Type of FU issued
system.switch_cpus_1.iq.FU_type_0::SimdFloatMult          408      0.00%     82.20% # Type of FU issued
system.switch_cpus_1.iq.FU_type_0::SimdFloatMultAcc            0      0.00%     82.20% # Type of FU issued
system.switch_cpus_1.iq.FU_type_0::SimdFloatSqrt            0      0.00%     82.20% # Type of FU issued
system.switch_cpus_1.iq.FU_type_0::SimdReduceAdd            0      0.00%     82.20% # Type of FU issued
system.switch_cpus_1.iq.FU_type_0::SimdReduceAlu            0      0.00%     82.20% # Type of FU issued
system.switch_cpus_1.iq.FU_type_0::SimdReduceCmp            0      0.00%     82.20% # Type of FU issued
system.switch_cpus_1.iq.FU_type_0::SimdFloatReduceAdd            0      0.00%     82.20% # Type of FU issued
system.switch_cpus_1.iq.FU_type_0::SimdFloatReduceCmp            0      0.00%     82.20% # Type of FU issued
system.switch_cpus_1.iq.FU_type_0::SimdAes            0      0.00%     82.20% # Type of FU issued
system.switch_cpus_1.iq.FU_type_0::SimdAesMix            0      0.00%     82.20% # Type of FU issued
system.switch_cpus_1.iq.FU_type_0::SimdSha1Hash            0      0.00%     82.20% # Type of FU issued
system.switch_cpus_1.iq.FU_type_0::SimdSha1Hash2            0      0.00%     82.20% # Type of FU issued
system.switch_cpus_1.iq.FU_type_0::SimdSha256Hash            0      0.00%     82.20% # Type of FU issued
system.switch_cpus_1.iq.FU_type_0::SimdSha256Hash2            0      0.00%     82.20% # Type of FU issued
system.switch_cpus_1.iq.FU_type_0::SimdShaSigma2            0      0.00%     82.20% # Type of FU issued
system.switch_cpus_1.iq.FU_type_0::SimdShaSigma3            0      0.00%     82.20% # Type of FU issued
system.switch_cpus_1.iq.FU_type_0::SimdPredAlu            0      0.00%     82.20% # Type of FU issued
system.switch_cpus_1.iq.FU_type_0::MemRead     71367692     11.89%     94.09% # Type of FU issued
system.switch_cpus_1.iq.FU_type_0::MemWrite     34016361      5.67%     99.76% # Type of FU issued
system.switch_cpus_1.iq.FU_type_0::FloatMemRead       696161      0.12%     99.87% # Type of FU issued
system.switch_cpus_1.iq.FU_type_0::FloatMemWrite       759646      0.13%    100.00% # Type of FU issued
system.switch_cpus_1.iq.FU_type_0::IprAccess            0      0.00%    100.00% # Type of FU issued
system.switch_cpus_1.iq.FU_type_0::InstPrefetch            0      0.00%    100.00% # Type of FU issued
system.switch_cpus_1.iq.FU_type_0::total    600118839                       # Type of FU issued
system.switch_cpus_1.iq.fp_alu_accesses       2819010                       # Number of floating point alu accesses
system.switch_cpus_1.iq.fp_inst_queue_reads      5619835                       # Number of floating instruction queue reads
system.switch_cpus_1.iq.fp_inst_queue_wakeup_accesses      2639983                       # Number of floating instruction queue wakeup accesses
system.switch_cpus_1.iq.fp_inst_queue_writes      4042321                       # Number of floating instruction queue writes
system.switch_cpus_1.iq.fu_busy_cnt          12860473                       # FU busy when requested
system.switch_cpus_1.iq.fu_busy_rate         0.021430                       # FU busy rate (busy events/executed inst)
system.switch_cpus_1.iq.fu_full::No_OpClass            0      0.00%      0.00% # attempts to use FU when none available
system.switch_cpus_1.iq.fu_full::IntAlu      11797903     91.74%     91.74% # attempts to use FU when none available
system.switch_cpus_1.iq.fu_full::IntMult            0      0.00%     91.74% # attempts to use FU when none available
system.switch_cpus_1.iq.fu_full::IntDiv             0      0.00%     91.74% # attempts to use FU when none available
system.switch_cpus_1.iq.fu_full::FloatAdd            0      0.00%     91.74% # attempts to use FU when none available
system.switch_cpus_1.iq.fu_full::FloatCmp            0      0.00%     91.74% # attempts to use FU when none available
system.switch_cpus_1.iq.fu_full::FloatCvt            0      0.00%     91.74% # attempts to use FU when none available
system.switch_cpus_1.iq.fu_full::FloatMult            0      0.00%     91.74% # attempts to use FU when none available
system.switch_cpus_1.iq.fu_full::FloatMultAcc            0      0.00%     91.74% # attempts to use FU when none available
system.switch_cpus_1.iq.fu_full::FloatDiv            0      0.00%     91.74% # attempts to use FU when none available
system.switch_cpus_1.iq.fu_full::FloatMisc            0      0.00%     91.74% # attempts to use FU when none available
system.switch_cpus_1.iq.fu_full::FloatSqrt            0      0.00%     91.74% # attempts to use FU when none available
system.switch_cpus_1.iq.fu_full::SimdAdd            0      0.00%     91.74% # attempts to use FU when none available
system.switch_cpus_1.iq.fu_full::SimdAddAcc            0      0.00%     91.74% # attempts to use FU when none available
system.switch_cpus_1.iq.fu_full::SimdAlu           83      0.00%     91.74% # attempts to use FU when none available
system.switch_cpus_1.iq.fu_full::SimdCmp            0      0.00%     91.74% # attempts to use FU when none available
system.switch_cpus_1.iq.fu_full::SimdCvt            0      0.00%     91.74% # attempts to use FU when none available
system.switch_cpus_1.iq.fu_full::SimdMisc            0      0.00%     91.74% # attempts to use FU when none available
system.switch_cpus_1.iq.fu_full::SimdMult            0      0.00%     91.74% # attempts to use FU when none available
system.switch_cpus_1.iq.fu_full::SimdMultAcc            0      0.00%     91.74% # attempts to use FU when none available
system.switch_cpus_1.iq.fu_full::SimdShift            0      0.00%     91.74% # attempts to use FU when none available
system.switch_cpus_1.iq.fu_full::SimdShiftAcc            0      0.00%     91.74% # attempts to use FU when none available
system.switch_cpus_1.iq.fu_full::SimdDiv            0      0.00%     91.74% # attempts to use FU when none available
system.switch_cpus_1.iq.fu_full::SimdSqrt            0      0.00%     91.74% # attempts to use FU when none available
system.switch_cpus_1.iq.fu_full::SimdFloatAdd            0      0.00%     91.74% # attempts to use FU when none available
system.switch_cpus_1.iq.fu_full::SimdFloatAlu            0      0.00%     91.74% # attempts to use FU when none available
system.switch_cpus_1.iq.fu_full::SimdFloatCmp            0      0.00%     91.74% # attempts to use FU when none available
system.switch_cpus_1.iq.fu_full::SimdFloatCvt            0      0.00%     91.74% # attempts to use FU when none available
system.switch_cpus_1.iq.fu_full::SimdFloatDiv            0      0.00%     91.74% # attempts to use FU when none available
system.switch_cpus_1.iq.fu_full::SimdFloatMisc            0      0.00%     91.74% # attempts to use FU when none available
system.switch_cpus_1.iq.fu_full::SimdFloatMult            0      0.00%     91.74% # attempts to use FU when none available
system.switch_cpus_1.iq.fu_full::SimdFloatMultAcc            0      0.00%     91.74% # attempts to use FU when none available
system.switch_cpus_1.iq.fu_full::SimdFloatSqrt            0      0.00%     91.74% # attempts to use FU when none available
system.switch_cpus_1.iq.fu_full::SimdReduceAdd            0      0.00%     91.74% # attempts to use FU when none available
system.switch_cpus_1.iq.fu_full::SimdReduceAlu            0      0.00%     91.74% # attempts to use FU when none available
system.switch_cpus_1.iq.fu_full::SimdReduceCmp            0      0.00%     91.74% # attempts to use FU when none available
system.switch_cpus_1.iq.fu_full::SimdFloatReduceAdd            0      0.00%     91.74% # attempts to use FU when none available
system.switch_cpus_1.iq.fu_full::SimdFloatReduceCmp            0      0.00%     91.74% # attempts to use FU when none available
system.switch_cpus_1.iq.fu_full::SimdAes            0      0.00%     91.74% # attempts to use FU when none available
system.switch_cpus_1.iq.fu_full::SimdAesMix            0      0.00%     91.74% # attempts to use FU when none available
system.switch_cpus_1.iq.fu_full::SimdSha1Hash            0      0.00%     91.74% # attempts to use FU when none available
system.switch_cpus_1.iq.fu_full::SimdSha1Hash2            0      0.00%     91.74% # attempts to use FU when none available
system.switch_cpus_1.iq.fu_full::SimdSha256Hash            0      0.00%     91.74% # attempts to use FU when none available
system.switch_cpus_1.iq.fu_full::SimdSha256Hash2            0      0.00%     91.74% # attempts to use FU when none available
system.switch_cpus_1.iq.fu_full::SimdShaSigma2            0      0.00%     91.74% # attempts to use FU when none available
system.switch_cpus_1.iq.fu_full::SimdShaSigma3            0      0.00%     91.74% # attempts to use FU when none available
system.switch_cpus_1.iq.fu_full::SimdPredAlu            0      0.00%     91.74% # attempts to use FU when none available
system.switch_cpus_1.iq.fu_full::MemRead       969143      7.54%     99.27% # attempts to use FU when none available
system.switch_cpus_1.iq.fu_full::MemWrite        74632      0.58%     99.85% # attempts to use FU when none available
system.switch_cpus_1.iq.fu_full::FloatMemRead            0      0.00%     99.85% # attempts to use FU when none available
system.switch_cpus_1.iq.fu_full::FloatMemWrite        18712      0.15%    100.00% # attempts to use FU when none available
system.switch_cpus_1.iq.fu_full::IprAccess            0      0.00%    100.00% # attempts to use FU when none available
system.switch_cpus_1.iq.fu_full::InstPrefetch            0      0.00%    100.00% # attempts to use FU when none available
system.switch_cpus_1.iq.int_alu_accesses    605277324                       # Number of integer alu accesses
system.switch_cpus_1.iq.int_inst_queue_reads   1416257615                       # Number of integer instruction queue reads
system.switch_cpus_1.iq.int_inst_queue_wakeup_accesses    575663012                       # Number of integer instruction queue wakeup accesses
system.switch_cpus_1.iq.int_inst_queue_writes    830048052                       # Number of integer instruction queue writes
system.switch_cpus_1.iq.iqInstsAdded        659545227                       # Number of instructions added to the IQ (excludes non-spec)
system.switch_cpus_1.iq.iqInstsIssued       600118839                       # Number of instructions issued
system.switch_cpus_1.iq.iqNonSpecInstsAdded        81046                       # Number of non-speculative instructions added to the IQ
system.switch_cpus_1.iq.iqSquashedInstsExamined    174454434                       # Number of squashed instructions iterated over during squash; mainly for profiling
system.switch_cpus_1.iq.iqSquashedInstsIssued      2393892                       # Number of squashed instructions issued
system.switch_cpus_1.iq.iqSquashedNonSpecRemoved        80807                       # Number of squashed non-spec instructions that were removed
system.switch_cpus_1.iq.iqSquashedOperandsExamined    260389345                       # Number of squashed operands that are examined and possibly removed from graph
system.switch_cpus_1.iq.issued_per_cycle::samples    206385414                       # Number of insts issued each cycle
system.switch_cpus_1.iq.issued_per_cycle::mean     2.907758                       # Number of insts issued each cycle
system.switch_cpus_1.iq.issued_per_cycle::stdev     2.590560                       # Number of insts issued each cycle
system.switch_cpus_1.iq.issued_per_cycle::underflows            0      0.00%      0.00% # Number of insts issued each cycle
system.switch_cpus_1.iq.issued_per_cycle::0     64911746     31.45%     31.45% # Number of insts issued each cycle
system.switch_cpus_1.iq.issued_per_cycle::1     15316613      7.42%     38.87% # Number of insts issued each cycle
system.switch_cpus_1.iq.issued_per_cycle::2     19978648      9.68%     48.55% # Number of insts issued each cycle
system.switch_cpus_1.iq.issued_per_cycle::3     19019103      9.22%     57.77% # Number of insts issued each cycle
system.switch_cpus_1.iq.issued_per_cycle::4     20975789     10.16%     67.93% # Number of insts issued each cycle
system.switch_cpus_1.iq.issued_per_cycle::5     21416737     10.38%     78.31% # Number of insts issued each cycle
system.switch_cpus_1.iq.issued_per_cycle::6     23773453     11.52%     89.83% # Number of insts issued each cycle
system.switch_cpus_1.iq.issued_per_cycle::7     13786538      6.68%     96.51% # Number of insts issued each cycle
system.switch_cpus_1.iq.issued_per_cycle::8      7206787      3.49%    100.00% # Number of insts issued each cycle
system.switch_cpus_1.iq.issued_per_cycle::overflows            0      0.00%    100.00% # Number of insts issued each cycle
system.switch_cpus_1.iq.issued_per_cycle::min_value            0                       # Number of insts issued each cycle
system.switch_cpus_1.iq.issued_per_cycle::max_value            8                       # Number of insts issued each cycle
system.switch_cpus_1.iq.issued_per_cycle::total    206385414                       # Number of insts issued each cycle
system.switch_cpus_1.iq.rate                 2.906872                       # Inst issue rate
system.switch_cpus_1.iq.vec_alu_accesses            0                       # Number of vector alu accesses
system.switch_cpus_1.iq.vec_inst_queue_reads            0                       # Number of vector instruction queue reads
system.switch_cpus_1.iq.vec_inst_queue_wakeup_accesses            0                       # Number of vector instruction queue wakeup accesses
system.switch_cpus_1.iq.vec_inst_queue_writes            0                       # Number of vector instruction queue writes
system.switch_cpus_1.itb.rdAccesses                 0                       # TLB accesses on read requests
system.switch_cpus_1.itb.rdMisses                   0                       # TLB misses on read requests
system.switch_cpus_1.itb.wrAccesses          55732226                       # TLB accesses on write requests
system.switch_cpus_1.itb.wrMisses               58318                       # TLB misses on write requests
system.switch_cpus_1.memDep0.conflictingLoads      5733509                       # Number of conflicting loads.
system.switch_cpus_1.memDep0.conflictingStores      3379034                       # Number of conflicting stores.
system.switch_cpus_1.memDep0.insertedLoads     77371507                       # Number of loads inserted to the mem dependence unit.
system.switch_cpus_1.memDep0.insertedStores     39382999                       # Number of stores inserted to the mem dependence unit.
system.switch_cpus_1.misc_regfile_reads     243182381                       # number of misc regfile reads
system.switch_cpus_1.numCycles              206448306                       # number of cpu cycles simulated
system.switch_cpus_1.numWorkItemsCompleted            0                       # number of work items this cpu completed
system.switch_cpus_1.numWorkItemsStarted            0                       # number of work items this cpu started
system.switch_cpus_1.rename.BlockCycles      20400193                       # Number of cycles rename is blocking
system.switch_cpus_1.rename.CommittedMaps    563070586                       # Number of HB maps that are committed
system.switch_cpus_1.rename.IQFullEvents      1007316                       # Number of times rename has blocked due to IQ full
system.switch_cpus_1.rename.IdleCycles       59979237                       # Number of cycles rename is idle
system.switch_cpus_1.rename.LQFullEvents         5937                       # Number of times rename has blocked due to LQ full
system.switch_cpus_1.rename.ROBFullEvents        20011                       # Number of times rename has blocked due to ROB full
system.switch_cpus_1.rename.RenameLookups   1862712482                       # Number of register rename lookups that rename has made
system.switch_cpus_1.rename.RenamedInsts    722700586                       # Number of instructions processed by rename
system.switch_cpus_1.rename.RenamedOperands    835636031                       # Number of destination operands rename has renamed
system.switch_cpus_1.rename.RunCycles       108027123                       # Number of cycles rename is running
system.switch_cpus_1.rename.SQFullEvents     10095051                       # Number of times rename has blocked due to SQ full
system.switch_cpus_1.rename.SquashCycles      6240249                       # Number of cycles rename is squashing
system.switch_cpus_1.rename.UnblockCycles     11734774                       # Number of cycles rename is unblocking
system.switch_cpus_1.rename.UndoneMaps      272565381                       # Number of HB maps that are undone due to squashing
system.switch_cpus_1.rename.fp_rename_lookups      4100480                       # Number of floating rename lookups
system.switch_cpus_1.rename.int_rename_lookups   1092873054                       # Number of integer rename lookups
system.switch_cpus_1.rename.serializeStallCycles         3829                       # count of cycles rename stalled for serializing inst
system.switch_cpus_1.rename.serializingInsts          270                       # count of serializing insts renamed
system.switch_cpus_1.rename.skidInsts         7874499                       # count of insts added to the skid buffer
system.switch_cpus_1.rename.tempSerializingInsts          270                       # count of temporary serializing insts renamed
system.switch_cpus_1.rob.rob_reads          810711003                       # The number of ROB reads
system.switch_cpus_1.rob.rob_writes        1345981963                       # The number of ROB writes
system.switch_cpus_1.timesIdled                 25989                       # Number of times that the entire CPU went into an idle state and unscheduled itself
system.tol2bus.snoop_filter.hit_multi_requests         1040                       # Number of requests hitting in the snoop filter with multiple (>1) holders of the requested data.
system.tol2bus.snoop_filter.hit_multi_snoops            0                       # Number of snoops hitting in the snoop filter with multiple (>1) holders of the requested data.
system.tol2bus.snoop_filter.hit_single_requests       196590                       # Number of requests hitting in the snoop filter with a single holder of the requested data.
system.tol2bus.snoop_filter.hit_single_snoops         6567                       # Number of snoops hitting in the snoop filter with a single holder of the requested data.
system.tol2bus.snoop_filter.tot_requests       379132                       # Total number of requests made to the snoop filter.
system.tol2bus.snoop_filter.tot_snoops           6567                       # Total number of snoops made to the snoop filter.
system.tol3bus.snoop_filter.hit_multi_requests            0                       # Number of requests hitting in the snoop filter with multiple (>1) holders of the requested data.
system.tol3bus.snoop_filter.hit_multi_snoops            0                       # Number of snoops hitting in the snoop filter with multiple (>1) holders of the requested data.
system.tol3bus.snoop_filter.hit_single_requests        57090                       # Number of requests hitting in the snoop filter with a single holder of the requested data.
system.tol3bus.snoop_filter.hit_single_snoops        45887                       # Number of snoops hitting in the snoop filter with a single holder of the requested data.
system.tol3bus.snoop_filter.tot_requests       113555                       # Total number of requests made to the snoop filter.
system.tol3bus.snoop_filter.tot_snoops          45887                       # Total number of snoops made to the snoop filter.
system.membus.trans_dist::ReadResp                342                       # Transaction distribution
system.membus.trans_dist::WritebackDirty        46212                       # Transaction distribution
system.membus.trans_dist::CleanEvict              731                       # Transaction distribution
system.membus.trans_dist::UpgradeReq              428                       # Transaction distribution
system.membus.trans_dist::ReadExReq             46697                       # Transaction distribution
system.membus.trans_dist::ReadExResp            46697                       # Transaction distribution
system.membus.trans_dist::ReadSharedReq           342                       # Transaction distribution
system.membus.pkt_count_system.l3.mem_side::system.mem_ctrls.port       141449                       # Packet count per connected master and slave (bytes)
system.membus.pkt_count_system.l3.mem_side::total       141449                       # Packet count per connected master and slave (bytes)
system.membus.pkt_count::total                 141449                       # Packet count per connected master and slave (bytes)
system.membus.pkt_size_system.l3.mem_side::system.mem_ctrls.port      5968064                       # Cumulative packet size per connected master and slave (bytes)
system.membus.pkt_size_system.l3.mem_side::total      5968064                       # Cumulative packet size per connected master and slave (bytes)
system.membus.pkt_size::total                 5968064                       # Cumulative packet size per connected master and slave (bytes)
system.membus.snoops                                0                       # Total snoops (count)
system.membus.snoopTraffic                          0                       # Total snoop traffic (bytes)
system.membus.snoop_fanout::samples             47467                       # Request fanout histogram
system.membus.snoop_fanout::mean                    0                       # Request fanout histogram
system.membus.snoop_fanout::stdev                   0                       # Request fanout histogram
system.membus.snoop_fanout::underflows              0      0.00%      0.00% # Request fanout histogram
system.membus.snoop_fanout::0                   47467    100.00%    100.00% # Request fanout histogram
system.membus.snoop_fanout::1                       0      0.00%    100.00% # Request fanout histogram
system.membus.snoop_fanout::overflows               0      0.00%    100.00% # Request fanout histogram
system.membus.snoop_fanout::min_value               0                       # Request fanout histogram
system.membus.snoop_fanout::max_value               0                       # Request fanout histogram
system.membus.snoop_fanout::total               47467                       # Request fanout histogram
system.membus.reqLayer2.occupancy           287456000                       # Layer occupancy (ticks)
system.membus.reqLayer2.utilization               0.3                       # Layer utilization (%)
system.membus.respLayer1.occupancy          247886500                       # Layer occupancy (ticks)
system.membus.respLayer1.utilization              0.2                       # Layer utilization (%)
system.membus.power_state.pwrStateResidencyTicks::UNDEFINED 1359202522000                       # Cumulative time (in ticks) in various power states
system.switch_cpus_1.dtb.walker.power_state.pwrStateResidencyTicks::UNDEFINED 1359202522000                       # Cumulative time (in ticks) in various power states
system.switch_cpus_1.itb.walker.power_state.pwrStateResidencyTicks::UNDEFINED 1359202522000                       # Cumulative time (in ticks) in various power states
system.switch_cpus_1.power_state.pwrStateResidencyTicks::OFF 1359202522000                       # Cumulative time (in ticks) in various power states
system.switch_cpus.dtb.walker.power_state.pwrStateResidencyTicks::UNDEFINED 1359202522000                       # Cumulative time (in ticks) in various power states
system.switch_cpus.itb.walker.power_state.pwrStateResidencyTicks::UNDEFINED 1359202522000                       # Cumulative time (in ticks) in various power states
system.switch_cpus.power_state.numTransitions            1                       # Number of power state transitions
system.switch_cpus.power_state.pwrStateResidencyTicks::OFF 1359202522000                       # Cumulative time (in ticks) in various power states
system.tol2bus.trans_dist::ReadResp            128265                       # Transaction distribution
system.tol2bus.trans_dist::WritebackDirty       115989                       # Transaction distribution
system.tol2bus.trans_dist::WritebackClean       103126                       # Transaction distribution
system.tol2bus.trans_dist::CleanEvict           55603                       # Transaction distribution
system.tol2bus.trans_dist::UpgradeReq           15549                       # Transaction distribution
system.tol2bus.trans_dist::UpgradeResp          15549                       # Transaction distribution
system.tol2bus.trans_dist::ReadExReq            53762                       # Transaction distribution
system.tol2bus.trans_dist::ReadExResp           53762                       # Transaction distribution
system.tol2bus.trans_dist::ReadCleanReq        128265                       # Transaction distribution
system.tol2bus.pkt_count_system.cpu.icache.mem_side::system.l2.cpu_side       309844                       # Packet count per connected master and slave (bytes)
system.tol2bus.pkt_count_system.cpu.dcache.mem_side::system.l2.cpu_side       266388                       # Packet count per connected master and slave (bytes)
system.tol2bus.pkt_count::total                576232                       # Packet count per connected master and slave (bytes)
system.tol2bus.pkt_size_system.cpu.icache.mem_side::system.l2.cpu_side     13199808                       # Cumulative packet size per connected master and slave (bytes)
system.tol2bus.pkt_size_system.cpu.dcache.mem_side::system.l2.cpu_side      9432448                       # Cumulative packet size per connected master and slave (bytes)
system.tol2bus.pkt_size::total               22632256                       # Cumulative packet size per connected master and slave (bytes)
system.tol2bus.snoops                           93638                       # Total snoops (count)
system.tol2bus.snoopTraffic                   3040832                       # Total snoop traffic (bytes)
system.tol2bus.snoop_fanout::samples           290738                       # Request fanout histogram
system.tol2bus.snoop_fanout::mean            0.026178                       # Request fanout histogram
system.tol2bus.snoop_fanout::stdev           0.159665                       # Request fanout histogram
system.tol2bus.snoop_fanout::underflows             0      0.00%      0.00% # Request fanout histogram
system.tol2bus.snoop_fanout::0                 283127     97.38%     97.38% # Request fanout histogram
system.tol2bus.snoop_fanout::1                   7611      2.62%    100.00% # Request fanout histogram
system.tol2bus.snoop_fanout::2                      0      0.00%    100.00% # Request fanout histogram
system.tol2bus.snoop_fanout::3                      0      0.00%    100.00% # Request fanout histogram
system.tol2bus.snoop_fanout::4                      0      0.00%    100.00% # Request fanout histogram
system.tol2bus.snoop_fanout::overflows              0      0.00%    100.00% # Request fanout histogram
system.tol2bus.snoop_fanout::min_value              0                       # Request fanout histogram
system.tol2bus.snoop_fanout::max_value              1                       # Request fanout histogram
system.tol2bus.snoop_fanout::total             290738                       # Request fanout histogram
system.tol2bus.reqLayer0.occupancy          361645497                       # Layer occupancy (ticks)
system.tol2bus.reqLayer0.utilization              0.4                       # Layer utilization (%)
system.tol2bus.respLayer1.occupancy         125451436                       # Layer occupancy (ticks)
system.tol2bus.respLayer1.utilization             0.1                       # Layer utilization (%)
system.tol2bus.respLayer0.occupancy         155395999                       # Layer occupancy (ticks)
system.tol2bus.respLayer0.utilization             0.2                       # Layer utilization (%)
system.tol2bus.power_state.pwrStateResidencyTicks::UNDEFINED 1359202522000                       # Cumulative time (in ticks) in various power states
system.voltage_domain.voltage                       1                       # Voltage in Volts
system.clk_domain.clock                          1000                       # Clock period in ticks
system.l2.demand_hits::.switch_cpus_1.inst       102813                       # number of demand (read+write) hits
system.l2.demand_hits::.switch_cpus_1.data        22273                       # number of demand (read+write) hits
system.l2.demand_hits::total                   125086                       # number of demand (read+write) hits
system.l2.overall_hits::.switch_cpus_1.inst       102813                       # number of overall hits
system.l2.overall_hits::.switch_cpus_1.data        22273                       # number of overall hits
system.l2.overall_hits::total                  125086                       # number of overall hits
system.l2.demand_misses::.switch_cpus_1.inst          308                       # number of demand (read+write) misses
system.l2.demand_misses::.switch_cpus_1.data        56157                       # number of demand (read+write) misses
system.l2.demand_misses::total                  56465                       # number of demand (read+write) misses
system.l2.overall_misses::.switch_cpus_1.inst          308                       # number of overall misses
system.l2.overall_misses::.switch_cpus_1.data        56157                       # number of overall misses
system.l2.overall_misses::total                 56465                       # number of overall misses
system.l2.demand_miss_latency::.switch_cpus_1.inst     32178000                       # number of demand (read+write) miss cycles
system.l2.demand_miss_latency::.switch_cpus_1.data   4890704000                       # number of demand (read+write) miss cycles
system.l2.demand_miss_latency::total       4922882000                       # number of demand (read+write) miss cycles
system.l2.overall_miss_latency::.switch_cpus_1.inst     32178000                       # number of overall miss cycles
system.l2.overall_miss_latency::.switch_cpus_1.data   4890704000                       # number of overall miss cycles
system.l2.overall_miss_latency::total      4922882000                       # number of overall miss cycles
system.l2.demand_accesses::.switch_cpus_1.inst       103121                       # number of demand (read+write) accesses
system.l2.demand_accesses::.switch_cpus_1.data        78430                       # number of demand (read+write) accesses
system.l2.demand_accesses::total               181551                       # number of demand (read+write) accesses
system.l2.overall_accesses::.switch_cpus_1.inst       103121                       # number of overall (read+write) accesses
system.l2.overall_accesses::.switch_cpus_1.data        78430                       # number of overall (read+write) accesses
system.l2.overall_accesses::total              181551                       # number of overall (read+write) accesses
system.l2.demand_miss_rate::.switch_cpus_1.inst     0.002987                       # miss rate for demand accesses
[...]
system.cpu.dcache.demand_miss_latency::total   6879306466                       # number of demand (read+write) miss cycles
system.cpu.dcache.overall_miss_latency::.switch_cpus.data   1096495000                       # number of overall miss cycles
system.cpu.dcache.overall_miss_latency::.switch_cpus_1.data   5782811466                       # number of overall miss cycles
system.cpu.dcache.overall_miss_latency::total   6879306466                       # number of overall miss cycles
system.cpu.dcache.demand_accesses::.cpu.data    368010250                       # number of demand (read+write) accesses
system.cpu.dcache.demand_accesses::.switch_cpus.data     17378405                       # number of demand (read+write) accesses
system.cpu.dcache.demand_accesses::.switch_cpus_1.data     90044888                       # number of demand (read+write) accesses
system.cpu.dcache.demand_accesses::total    475433543                       # number of demand (read+write) accesses
system.cpu.dcache.overall_accesses::.cpu.data    368010250                       # number of overall (read+write) accesses
system.cpu.dcache.overall_accesses::.switch_cpus.data     17378405                       # number of overall (read+write) accesses
system.cpu.dcache.overall_accesses::.switch_cpus_1.data     90044888                       # number of overall (read+write) accesses
system.cpu.dcache.overall_accesses::total    475433543                       # number of overall (read+write) accesses
system.cpu.dcache.demand_miss_rate::.cpu.data     0.000633                       # miss rate for demand accesses
system.cpu.dcache.demand_miss_rate::.switch_cpus.data     0.001041                       # miss rate for demand accesses
system.cpu.dcache.demand_miss_rate::.switch_cpus_1.data     0.001188                       # miss rate for demand accesses
system.cpu.dcache.demand_miss_rate::total     0.000753                       # miss rate for demand accesses
system.cpu.dcache.overall_miss_rate::.cpu.data     0.000633                       # miss rate for overall accesses
system.cpu.dcache.overall_miss_rate::.switch_cpus.data     0.001041                       # miss rate for overall accesses
system.cpu.dcache.overall_miss_rate::.switch_cpus_1.data     0.001188                       # miss rate for overall accesses
system.cpu.dcache.overall_miss_rate::total     0.000753                       # miss rate for overall accesses
system.cpu.dcache.demand_avg_miss_latency::.switch_cpus.data 60589.876775                       # average overall miss latency
system.cpu.dcache.demand_avg_miss_latency::.switch_cpus_1.data 54038.401559                       # average overall miss latency
system.cpu.dcache.demand_avg_miss_latency::total 19220.395974                       # average overall miss latency
system.cpu.dcache.overall_avg_miss_latency::.switch_cpus.data 60589.876775                       # average overall miss latency
system.cpu.dcache.overall_avg_miss_latency::.switch_cpus_1.data 54038.401559                       # average overall miss latency
system.cpu.dcache.overall_avg_miss_latency::total 19220.395974                       # average overall miss latency
system.cpu.dcache.blocked_cycles::no_mshrs         3501                       # number of cycles access was blocked
system.cpu.dcache.blocked_cycles::no_targets            3                       # number of cycles access was blocked
system.cpu.dcache.blocked::no_mshrs               313                       # number of cycles access was blocked
system.cpu.dcache.blocked::no_targets               3                       # number of cycles access was blocked
system.cpu.dcache.avg_blocked_cycles::no_mshrs    11.185304                       # average number of cycles each access was blocked
system.cpu.dcache.avg_blocked_cycles::no_targets            1                       # average number of cycles each access was blocked
system.cpu.dcache.writebacks::.writebacks       267220                       # number of writebacks
system.cpu.dcache.writebacks::total            267220                       # number of writebacks
system.cpu.dcache.demand_mshr_hits::.switch_cpus_1.data        20485                       # number of demand (read+write) MSHR hits
system.cpu.dcache.demand_mshr_hits::total        20485                       # number of demand (read+write) MSHR hits
system.cpu.dcache.overall_mshr_hits::.switch_cpus_1.data        20485                       # number of overall MSHR hits
system.cpu.dcache.overall_mshr_hits::total        20485                       # number of overall MSHR hits
system.cpu.dcache.demand_mshr_misses::.switch_cpus.data        18097                       # number of demand (read+write) MSHR misses
system.cpu.dcache.demand_mshr_misses::.switch_cpus_1.data        86528                       # number of demand (read+write) MSHR misses
system.cpu.dcache.demand_mshr_misses::total       104625                       # number of demand (read+write) MSHR misses
system.cpu.dcache.overall_mshr_misses::.switch_cpus.data        18097                       # number of overall MSHR misses
system.cpu.dcache.overall_mshr_misses::.switch_cpus_1.data        86528                       # number of overall MSHR misses
system.cpu.dcache.overall_mshr_misses::total       104625                       # number of overall MSHR misses
system.cpu.dcache.demand_mshr_miss_latency::.switch_cpus.data   1078398000                       # number of demand (read+write) MSHR miss cycles
system.cpu.dcache.demand_mshr_miss_latency::.switch_cpus_1.data   5432626466                       # number of demand (read+write) MSHR miss cycles
system.cpu.dcache.demand_mshr_miss_latency::total   6511024466                       # number of demand (read+write) MSHR miss cycles
system.cpu.dcache.overall_mshr_miss_latency::.switch_cpus.data   1078398000                       # number of overall MSHR miss cycles
system.cpu.dcache.overall_mshr_miss_latency::.switch_cpus_1.data   5432626466                       # number of overall MSHR miss cycles
system.cpu.dcache.overall_mshr_miss_latency::total   6511024466                       # number of overall MSHR miss cycles
system.cpu.dcache.demand_mshr_miss_rate::.switch_cpus.data     0.001041                       # mshr miss rate for demand accesses
system.cpu.dcache.demand_mshr_miss_rate::.switch_cpus_1.data     0.000961                       # mshr miss rate for demand accesses
system.cpu.dcache.demand_mshr_miss_rate::total     0.000220                       # mshr miss rate for demand accesses
system.cpu.dcache.overall_mshr_miss_rate::.switch_cpus.data     0.001041                       # mshr miss rate for overall accesses
system.cpu.dcache.overall_mshr_miss_rate::.switch_cpus_1.data     0.000961                       # mshr miss rate for overall accesses
system.cpu.dcache.overall_mshr_miss_rate::total     0.000220                       # mshr miss rate for overall accesses
system.cpu.dcache.demand_avg_mshr_miss_latency::.switch_cpus.data 59589.876775                       # average overall mshr miss latency
system.cpu.dcache.demand_avg_mshr_miss_latency::.switch_cpus_1.data 62784.606902                       # average overall mshr miss latency
system.cpu.dcache.demand_avg_mshr_miss_latency::total 62232.014012                       # average overall mshr miss latency
system.cpu.dcache.overall_avg_mshr_miss_latency::.switch_cpus.data 59589.876775                       # average overall mshr miss latency
system.cpu.dcache.overall_avg_mshr_miss_latency::.switch_cpus_1.data 62784.606902                       # average overall mshr miss latency
system.cpu.dcache.overall_avg_mshr_miss_latency::total 62232.014012                       # average overall mshr miss latency
system.cpu.dcache.replacements                 309455                       # number of replacements
system.cpu.dcache.ReadReq_hits::.cpu.data    231035047                       # number of ReadReq hits
system.cpu.dcache.ReadReq_hits::.switch_cpus.data     11297769                       # number of ReadReq hits
system.cpu.dcache.ReadReq_hits::.switch_cpus_1.data     59835941                       # number of ReadReq hits
system.cpu.dcache.ReadReq_hits::total       302168757                       # number of ReadReq hits
system.cpu.dcache.ReadReq_misses::.cpu.data        48225                       # number of ReadReq misses
system.cpu.dcache.ReadReq_misses::.switch_cpus.data         3953                       # number of ReadReq misses
system.cpu.dcache.ReadReq_misses::.switch_cpus_1.data        37702                       # number of ReadReq misses
system.cpu.dcache.ReadReq_misses::total         89880                       # number of ReadReq misses
system.cpu.dcache.ReadReq_miss_latency::.switch_cpus.data     79194500                       # number of ReadReq miss cycles
system.cpu.dcache.ReadReq_miss_latency::.switch_cpus_1.data    751357500                       # number of ReadReq miss cycles
system.cpu.dcache.ReadReq_miss_latency::total    830552000                       # number of ReadReq miss cycles
system.cpu.dcache.ReadReq_accesses::.cpu.data    231083272                       # number of ReadReq accesses(hits+misses)
system.cpu.dcache.ReadReq_accesses::.switch_cpus.data     11301722                       # number of ReadReq accesses(hits+misses)
system.cpu.dcache.ReadReq_accesses::.switch_cpus_1.data     59873643                       # number of ReadReq accesses(hits+misses)
system.cpu.dcache.ReadReq_accesses::total    302258637                       # number of ReadReq accesses(hits+misses)
system.cpu.dcache.ReadReq_miss_rate::.cpu.data     0.000209                       # miss rate for ReadReq accesses
system.cpu.dcache.ReadReq_miss_rate::.switch_cpus.data     0.000350                       # miss rate for ReadReq accesses
system.cpu.dcache.ReadReq_miss_rate::.switch_cpus_1.data     0.000630                       # miss rate for ReadReq accesses
system.cpu.dcache.ReadReq_miss_rate::total     0.000297                       # miss rate for ReadReq accesses
system.cpu.dcache.ReadReq_avg_miss_latency::.switch_cpus.data 20034.024791                       # average ReadReq miss latency
system.cpu.dcache.ReadReq_avg_miss_latency::.switch_cpus_1.data 19928.849928                       # average ReadReq miss latency
system.cpu.dcache.ReadReq_avg_miss_latency::total  9240.676457                       # average ReadReq miss latency
system.cpu.dcache.ReadReq_mshr_hits::.switch_cpus_1.data        13034                       # number of ReadReq MSHR hits
system.cpu.dcache.ReadReq_mshr_hits::total        13034                       # number of ReadReq MSHR hits
system.cpu.dcache.ReadReq_mshr_misses::.switch_cpus.data         3953                       # number of ReadReq MSHR misses
system.cpu.dcache.ReadReq_mshr_misses::.switch_cpus_1.data        24668                       # number of ReadReq MSHR misses
system.cpu.dcache.ReadReq_mshr_misses::total        28621                       # number of ReadReq MSHR misses
system.cpu.dcache.ReadReq_mshr_miss_latency::.switch_cpus.data     75241500                       # number of ReadReq MSHR miss cycles
system.cpu.dcache.ReadReq_mshr_miss_latency::.switch_cpus_1.data    470483500                       # number of ReadReq MSHR miss cycles
system.cpu.dcache.ReadReq_mshr_miss_latency::total    545725000                       # number of ReadReq MSHR miss cycles
system.cpu.dcache.ReadReq_mshr_miss_rate::.switch_cpus.data     0.000350                       # mshr miss rate for ReadReq accesses
system.cpu.dcache.ReadReq_mshr_miss_rate::.switch_cpus_1.data     0.000412                       # mshr miss rate for ReadReq accesses
system.cpu.dcache.ReadReq_mshr_miss_rate::total     0.000095                       # mshr miss rate for ReadReq accesses
system.cpu.dcache.ReadReq_avg_mshr_miss_latency::.switch_cpus.data 19034.024791                       # average ReadReq mshr miss latency
system.cpu.dcache.ReadReq_avg_mshr_miss_latency::.switch_cpus_1.data 19072.624453                       # average ReadReq mshr miss latency
system.cpu.dcache.ReadReq_avg_mshr_miss_latency::total 19067.293246                       # average ReadReq mshr miss latency
system.cpu.dcache.WriteReq_hits::.cpu.data    136742396                       # number of WriteReq hits
system.cpu.dcache.WriteReq_hits::.switch_cpus.data      6062539                       # number of WriteReq hits
system.cpu.dcache.WriteReq_hits::.switch_cpus_1.data     30101934                       # number of WriteReq hits
system.cpu.dcache.WriteReq_hits::total      172906869                       # number of WriteReq hits
system.cpu.dcache.WriteReq_misses::.cpu.data       184582                       # number of WriteReq misses
system.cpu.dcache.WriteReq_misses::.switch_cpus.data        14144                       # number of WriteReq misses
system.cpu.dcache.WriteReq_misses::.switch_cpus_1.data        69311                       # number of WriteReq misses
system.cpu.dcache.WriteReq_misses::total       268037                       # number of WriteReq misses
system.cpu.dcache.WriteReq_miss_latency::.switch_cpus.data   1017300500                       # number of WriteReq miss cycles
system.cpu.dcache.WriteReq_miss_latency::.switch_cpus_1.data   5031453966                       # number of WriteReq miss cycles
system.cpu.dcache.WriteReq_miss_latency::total   6048754466                       # number of WriteReq miss cycles
system.cpu.dcache.WriteReq_accesses::.cpu.data    136926978                       # number of WriteReq accesses(hits+misses)
system.cpu.dcache.WriteReq_accesses::.switch_cpus.data      6076683                       # number of WriteReq accesses(hits+misses)
system.cpu.dcache.WriteReq_accesses::.switch_cpus_1.data     30171245                       # number of WriteReq accesses(hits+misses)
system.cpu.dcache.WriteReq_accesses::total    173174906                       # number of WriteReq accesses(hits+misses)
system.cpu.dcache.WriteReq_miss_rate::.cpu.data     0.001348                       # miss rate for WriteReq accesses
system.cpu.dcache.WriteReq_miss_rate::.switch_cpus.data     0.002328                       # miss rate for WriteReq accesses
system.cpu.dcache.WriteReq_miss_rate::.switch_cpus_1.data     0.002297                       # miss rate for WriteReq accesses
system.cpu.dcache.WriteReq_miss_rate::total     0.001548                       # miss rate for WriteReq accesses
system.cpu.dcache.WriteReq_avg_miss_latency::.switch_cpus.data 71924.526301                       # average WriteReq miss latency
system.cpu.dcache.WriteReq_avg_miss_latency::.switch_cpus_1.data 72592.430725                       # average WriteReq miss latency
system.cpu.dcache.WriteReq_avg_miss_latency::total 22566.863776                       # average WriteReq miss latency
system.cpu.dcache.WriteReq_mshr_hits::.switch_cpus_1.data         7451                       # number of WriteReq MSHR hits
system.cpu.dcache.WriteReq_mshr_hits::total         7451                       # number of WriteReq MSHR hits
system.cpu.dcache.WriteReq_mshr_misses::.switch_cpus.data        14144                       # number of WriteReq MSHR misses
system.cpu.dcache.WriteReq_mshr_misses::.switch_cpus_1.data        61860                       # number of WriteReq MSHR misses
system.cpu.dcache.WriteReq_mshr_misses::total        76004                       # number of WriteReq MSHR misses
system.cpu.dcache.WriteReq_mshr_miss_latency::.switch_cpus.data   1003156500                       # number of WriteReq MSHR miss cycles
system.cpu.dcache.WriteReq_mshr_miss_latency::.switch_cpus_1.data   4962142966                       # number of WriteReq MSHR miss cycles
system.cpu.dcache.WriteReq_mshr_miss_latency::total   5965299466                       # number of WriteReq MSHR miss cycles
system.cpu.dcache.WriteReq_mshr_miss_rate::.switch_cpus.data     0.002328                       # mshr miss rate for WriteReq accesses
system.cpu.dcache.WriteReq_mshr_miss_rate::.switch_cpus_1.data     0.002050                       # mshr miss rate for WriteReq accesses
system.cpu.dcache.WriteReq_mshr_miss_rate::total     0.000439                       # mshr miss rate for WriteReq accesses
system.cpu.dcache.WriteReq_avg_mshr_miss_latency::.switch_cpus.data 70924.526301                       # average WriteReq mshr miss latency
system.cpu.dcache.WriteReq_avg_mshr_miss_latency::.switch_cpus_1.data 80215.696185                       # average WriteReq mshr miss latency
system.cpu.dcache.WriteReq_avg_mshr_miss_latency::total 78486.651571                       # average WriteReq mshr miss latency
system.cpu.dcache.power_state.pwrStateResidencyTicks::UNDEFINED 1359202522000                       # Cumulative time (in ticks) in various power states
system.cpu.dcache.tags.tagsinuse           511.992132                       # Cycle average of tags in use
system.cpu.dcache.tags.total_refs           475413240                       # Total number of references to valid blocks.
system.cpu.dcache.tags.sampled_refs            309967                       # Sample count of references to valid blocks.
system.cpu.dcache.tags.avg_refs           1533.754367                       # Average number of references to valid blocks.
system.cpu.dcache.tags.warmup_cycle              1500                       # Cycle when the warmup percentage was hit.
system.cpu.dcache.tags.occ_blocks::.cpu.data   441.952320                       # Average occupied blocks per requestor
system.cpu.dcache.tags.occ_blocks::.switch_cpus.data    31.639775                       # Average occupied blocks per requestor
system.cpu.dcache.tags.occ_blocks::.switch_cpus_1.data    38.400036                       # Average occupied blocks per requestor
system.cpu.dcache.tags.occ_percent::.cpu.data     0.863188                       # Average percentage of cache occupancy
system.cpu.dcache.tags.occ_percent::.switch_cpus.data     0.061796                       # Average percentage of cache occupancy
system.cpu.dcache.tags.occ_percent::.switch_cpus_1.data     0.075000                       # Average percentage of cache occupancy
system.cpu.dcache.tags.occ_percent::total     0.999985                       # Average percentage of cache occupancy
system.cpu.dcache.tags.occ_task_id_blocks::1024          512                       # Occupied blocks per task id
system.cpu.dcache.tags.age_task_id_blocks_1024::0            1                       # Occupied blocks per task id
system.cpu.dcache.tags.age_task_id_blocks_1024::1           16                       # Occupied blocks per task id
system.cpu.dcache.tags.age_task_id_blocks_1024::2          488                       # Occupied blocks per task id
system.cpu.dcache.tags.age_task_id_blocks_1024::3            2                       # Occupied blocks per task id
system.cpu.dcache.tags.age_task_id_blocks_1024::4            5                       # Occupied blocks per task id
system.cpu.dcache.tags.occ_task_id_percent::1024            1                       # Percentage of cache occupancy per task id
system.cpu.dcache.tags.tag_accesses        1902044139                       # Number of tag accesses
system.cpu.dcache.tags.data_accesses       1902044139                       # Number of data accesses
system.cpu.dcache.tags.power_state.pwrStateResidencyTicks::UNDEFINED 1359202522000                       # Cumulative time (in ticks) in various power states
system.cpu.power_state.numTransitions               2                       # Number of power state transitions
system.cpu.power_state.pwrStateResidencyTicks::ON 1168016829000                       # Cumulative time (in ticks) in various power states
system.cpu.power_state.pwrStateResidencyTicks::OFF 191185693000                       # Cumulative time (in ticks) in various power states

---------- End Simulation Statistics   ----------
