
---------- Begin Simulation Statistics ----------
final_tick                               1385700820000                       # Number of ticks from beginning of simulation (restored from checkpoints and never reset)
host_inst_rate                                  60536                       # Simulator instruction rate (inst/s)
host_mem_usage                                4560924                       # Number of bytes of host memory used
host_op_rate                                   114609                       # Simulator op (including micro ops) rate (op/s)
host_seconds                                 21474.78                       # Real time elapsed on the host
host_tick_rate                                8136377                       # Simulator tick rate (ticks/s)
sim_freq                                 1000000000000                       # Frequency of simulated ticks
sim_insts                                  1300000003                       # Number of instructions simulated
sim_ops                                    2461197227                       # Number of ops (including micro ops) simulated
sim_seconds                                  0.174727                       # Number of seconds simulated
sim_ticks                                174726912500                       # Number of ticks simulated
system.cpu.committedInsts                           0                       # Number of instructions committed
system.cpu.committedOps                             0                       # Number of ops (including micro ops) committed
system.cpu.dtb.rdAccesses                           0                       # TLB accesses on read requests
system.cpu.dtb.rdMisses                             0                       # TLB misses on read requests
system.cpu.dtb.wrAccesses                           0                       # TLB accesses on write requests
system.cpu.dtb.wrMisses                             0                       # TLB misses on write requests
system.cpu.idle_fraction                            0                       # Percentage of idle cycles
system.cpu.itb.rdAccesses                           0                       # TLB accesses on read requests
system.cpu.itb.rdMisses                             0                       # TLB misses on read requests
system.cpu.itb.wrAccesses                           0                       # TLB accesses on write requests
system.cpu.itb.wrMisses                             0                       # TLB misses on write requests
system.cpu.not_idle_fraction                        1                       # Percentage of non-idle cycles
system.cpu.numCycles                                0                       # number of cpu cycles simulated
system.cpu.numWorkItemsCompleted                    0                       # number of work items this cpu completed
system.cpu.numWorkItemsStarted                      0                       # number of work items this cpu started
system.cpu.num_busy_cycles                          0                       # Number of busy cycles
system.cpu.num_conditional_control_insts            0                       # number of instructions that are conditional controls
system.cpu.num_fp_alu_accesses                      0                       # Number of float alu accesses
system.cpu.num_fp_insts                             0                       # number of float instructions
system.cpu.num_fp_register_reads                    0                       # number of times the floating registers were read
system.cpu.num_fp_register_writes                   0                       # number of times the floating registers were written
system.cpu.num_func_calls                           0                       # number of times a function call or return occured
system.cpu.num_idle_cycles                          0                       # Number of idle cycles
system.cpu.num_int_alu_accesses                     0                       # Number of integer alu accesses
system.cpu.num_int_insts                            0                       # number of integer instructions
system.cpu.num_int_register_reads                   0                       # number of times the integer registers were read
system.cpu.num_int_register_writes                  0                       # number of times the integer registers were written
system.cpu.num_load_insts                           0                       # Number of load instructions
system.cpu.num_mem_refs                             0                       # number of memory refs
system.cpu.num_store_insts                          0                       # Number of store instructions
system.cpu.num_vec_alu_accesses                     0                       # Number of vector alu accesses
system.cpu.num_vec_insts                            0                       # number of vector instructions
system.cpu.num_vec_register_reads                   0                       # number of times the vector registers were read
system.cpu.num_vec_register_writes                  0                       # number of times the vector registers were written
system.cpu.op_class::No_OpClass                     0                       # Class of executed instruction
system.cpu.op_class::IntAlu                         0                       # Class of executed instruction
system.cpu.op_class::IntMult                        0                       # Class of executed instruction
system.cpu.op_class::IntDiv                         0                       # Class of executed instruction
system.cpu.op_class::FloatAdd                       0                       # Class of executed instruction
system.cpu.op_class::FloatCmp                       0                       # Class of executed instruction
system.cpu.op_class::FloatCvt                       0                       # Class of executed instruction
system.cpu.op_class::FloatMult                      0                       # Class of executed instruction
system.cpu.op_class::FloatMultAcc                   0                       # Class of executed instruction
system.cpu.op_class::FloatDiv                       0                       # Class of executed instruction
system.cpu.op_class::FloatMisc                      0                       # Class of executed instruction
system.cpu.op_class::FloatSqrt                      0                       # Class of executed instruction
system.cpu.op_class::SimdAdd                        0                       # Class of executed instruction
system.cpu.op_class::SimdAddAcc                     0                       # Class of executed instruction
system.cpu.op_class::SimdAlu                        0                       # Class of executed instruction
system.cpu.op_class::SimdCmp                        0                       # Class of executed instruction
system.cpu.op_class::SimdCvt                        0                       # Class of executed instruction
system.cpu.op_class::SimdMisc                       0                       # Class of executed instruction
system.cpu.op_class::SimdMult                       0                       # Class of executed instruction
system.cpu.op_class::SimdMultAcc                    0                       # Class of executed instruction
system.cpu.op_class::SimdShift                      0                       # Class of executed instruction
system.cpu.op_class::SimdShiftAcc                   0                       # Class of executed instruction
system.cpu.op_class::SimdDiv                        0                       # Class of executed instruction
system.cpu.op_class::SimdSqrt                       0                       # Class of executed instruction
system.cpu.op_class::SimdFloatAdd                   0                       # Class of executed instruction
system.cpu.op_class::SimdFloatAlu                   0                       # Class of executed instruction
system.cpu.op_class::SimdFloatCmp                   0                       # Class of executed instruction
system.cpu.op_class::SimdFloatCvt                   0                       # Class of executed instruction
system.cpu.op_class::SimdFloatDiv                   0                       # Class of executed instruction
system.cpu.op_class::SimdFloatMisc                  0                       # Class of executed instruction
system.cpu.op_class::SimdFloatMult                  0                       # Class of executed instruction
system.cpu.op_class::SimdFloatMultAcc               0                       # Class of executed instruction
system.cpu.op_class::SimdFloatSqrt                  0                       # Class of executed instruction
system.cpu.op_class::SimdReduceAdd                  0                       # Class of executed instruction
system.cpu.op_class::SimdReduceAlu                  0                       # Class of executed instruction
system.cpu.op_class::SimdReduceCmp                  0                       # Class of executed instruction
system.cpu.op_class::SimdFloatReduceAdd             0                       # Class of executed instruction
system.cpu.op_class::SimdFloatReduceCmp             0                       # Class of executed instruction
system.cpu.op_class::SimdAes                        0                       # Class of executed instruction
system.cpu.op_class::SimdAesMix                     0                       # Class of executed instruction
system.cpu.op_class::SimdSha1Hash                   0                       # Class of executed instruction
system.cpu.op_class::SimdSha1Hash2                  0                       # Class of executed instruction
system.cpu.op_class::SimdSha256Hash                 0                       # Class of executed instruction
system.cpu.op_class::SimdSha256Hash2                0                       # Class of executed instruction
system.cpu.op_class::SimdShaSigma2                  0                       # Class of executed instruction
system.cpu.op_class::SimdShaSigma3                  0                       # Class of executed instruction
system.cpu.op_class::SimdPredAlu                    0                       # Class of executed instruction
system.cpu.op_class::MemRead                        0                       # Class of executed instruction
system.cpu.op_class::MemWrite                       0                       # Class of executed instruction
system.cpu.op_class::FloatMemRead                   0                       # Class of executed instruction
system.cpu.op_class::FloatMemWrite                  0                       # Class of executed instruction
system.cpu.op_class::IprAccess                      0                       # Class of executed instruction
system.cpu.op_class::InstPrefetch                   0                       # Class of executed instruction
system.cpu.op_class::total                          0                       # Class of executed instruction
system.cpu.workload.numSyscalls                     3                       # Number of system calls
system.membus.snoop_filter.hit_multi_requests            0                       # Number of requests hitting in the snoop filter with multiple (>1) holders of the requested data.
system.membus.snoop_filter.hit_multi_snoops            0                       # Number of snoops hitting in the snoop filter with multiple (>1) holders of the requested data.
system.membus.snoop_filter.hit_single_requests        78422                       # Number of requests hitting in the snoop filter with a single holder of the requested data.
system.membus.snoop_filter.hit_single_snoops            0                       # Number of snoops hitting in the snoop filter with a single holder of the requested data.
system.membus.snoop_filter.tot_requests        156940                       # Total number of requests made to the snoop filter.
system.membus.snoop_filter.tot_snoops               0                       # Total number of snoops made to the snoop filter.
system.switch_cpus.committedInsts                   0                       # Number of instructions committed
system.switch_cpus.committedOps                     0                       # Number of ops (including micro ops) committed
system.switch_cpus.dtb.rdAccesses                   0                       # TLB accesses on read requests
system.switch_cpus.dtb.rdMisses                     0                       # TLB misses on read requests
system.switch_cpus.dtb.wrAccesses                   0                       # TLB accesses on write requests
system.switch_cpus.dtb.wrMisses                     0                       # TLB misses on write requests
system.switch_cpus.idle_fraction                    0                       # Percentage of idle cycles
system.switch_cpus.itb.rdAccesses                   0                       # TLB accesses on read requests
system.switch_cpus.itb.rdMisses                     0                       # TLB misses on read requests
system.switch_cpus.itb.wrAccesses                   0                       # TLB accesses on write requests
system.switch_cpus.itb.wrMisses                     0                       # TLB misses on write requests
system.switch_cpus.not_idle_fraction                1                       # Percentage of non-idle cycles
system.switch_cpus.numCycles                        0                       # number of cpu cycles simulated
system.switch_cpus.numWorkItemsCompleted            0                       # number of work items this cpu completed
system.switch_cpus.numWorkItemsStarted              0                       # number of work items this cpu started
system.switch_cpus.num_busy_cycles                  0                       # Number of busy cycles
system.switch_cpus.num_conditional_control_insts            0                       # number of instructions that are conditional controls
system.switch_cpus.num_fp_alu_accesses              0                       # Number of float alu accesses
system.switch_cpus.num_fp_insts                     0                       # number of float instructions
system.switch_cpus.num_fp_register_reads            0                       # number of times the floating registers were read
system.switch_cpus.num_fp_register_writes            0                       # number of times the floating registers were written
system.switch_cpus.num_func_calls                   0                       # number of times a function call or return occured
system.switch_cpus.num_idle_cycles                  0                       # Number of idle cycles
system.switch_cpus.num_int_alu_accesses             0                       # Number of integer alu accesses
system.switch_cpus.num_int_insts                    0                       # number of integer instructions
system.switch_cpus.num_int_register_reads            0                       # number of times the integer registers were read
system.switch_cpus.num_int_register_writes            0                       # number of times the integer registers were written
system.switch_cpus.num_load_insts                   0                       # Number of load instructions
system.switch_cpus.num_mem_refs                     0                       # number of memory refs
system.switch_cpus.num_store_insts                  0                       # Number of store instructions
system.switch_cpus.num_vec_alu_accesses             0                       # Number of vector alu accesses
system.switch_cpus.num_vec_insts                    0                       # number of vector instructions
system.switch_cpus.num_vec_register_reads            0                       # number of times the vector registers were read
system.switch_cpus.num_vec_register_writes            0                       # number of times the vector registers were written
system.switch_cpus.op_class::No_OpClass             0                       # Class of executed instruction
system.switch_cpus.op_class::IntAlu                 0                       # Class of executed instruction
system.switch_cpus.op_class::IntMult                0                       # Class of executed instruction
system.switch_cpus.op_class::IntDiv                 0                       # Class of executed instruction
system.switch_cpus.op_class::FloatAdd               0                       # Class of executed instruction
system.switch_cpus.op_class::FloatCmp               0                       # Class of executed instruction
system.switch_cpus.op_class::FloatCvt               0                       # Class of executed instruction
system.switch_cpus.op_class::FloatMult              0                       # Class of executed instruction
system.switch_cpus.op_class::FloatMultAcc            0                       # Class of executed instruction
system.switch_cpus.op_class::FloatDiv               0                       # Class of executed instruction
system.switch_cpus.op_class::FloatMisc              0                       # Class of executed instruction
system.switch_cpus.op_class::FloatSqrt              0                       # Class of executed instruction
system.switch_cpus.op_class::SimdAdd                0                       # Class of executed instruction
system.switch_cpus.op_class::SimdAddAcc             0                       # Class of executed instruction
system.switch_cpus.op_class::SimdAlu                0                       # Class of executed instruction
system.switch_cpus.op_class::SimdCmp                0                       # Class of executed instruction
system.switch_cpus.op_class::SimdCvt                0                       # Class of executed instruction
system.switch_cpus.op_class::SimdMisc               0                       # Class of executed instruction
system.switch_cpus.op_class::SimdMult               0                       # Class of executed instruction
system.switch_cpus.op_class::SimdMultAcc            0                       # Class of executed instruction
system.switch_cpus.op_class::SimdShift              0                       # Class of executed instruction
system.switch_cpus.op_class::SimdShiftAcc            0                       # Class of executed instruction
system.switch_cpus.op_class::SimdDiv                0                       # Class of executed instruction
system.switch_cpus.op_class::SimdSqrt               0                       # Class of executed instruction
system.switch_cpus.op_class::SimdFloatAdd            0                       # Class of executed instruction
system.switch_cpus.op_class::SimdFloatAlu            0                       # Class of executed instruction
system.switch_cpus.op_class::SimdFloatCmp            0                       # Class of executed instruction
system.switch_cpus.op_class::SimdFloatCvt            0                       # Class of executed instruction
system.switch_cpus.op_class::SimdFloatDiv            0                       # Class of executed instruction
system.switch_cpus.op_class::SimdFloatMisc            0                       # Class of executed instruction
system.switch_cpus.op_class::SimdFloatMult            0                       # Class of executed instruction
system.switch_cpus.op_class::SimdFloatMultAcc            0                       # Class of executed instruction
system.switch_cpus.op_class::SimdFloatSqrt            0                       # Class of executed instruction
system.switch_cpus.op_class::SimdReduceAdd            0                       # Class of executed instruction
system.switch_cpus.op_class::SimdReduceAlu            0                       # Class of executed instruction
system.switch_cpus.op_class::SimdReduceCmp            0                       # Class of executed instruction
system.switch_cpus.op_class::SimdFloatReduceAdd            0                       # Class of executed instruction
system.switch_cpus.op_class::SimdFloatReduceCmp            0                       # Class of executed instruction
system.switch_cpus.op_class::SimdAes                0                       # Class of executed instruction
system.switch_cpus.op_class::SimdAesMix             0                       # Class of executed instruction
system.switch_cpus.op_class::SimdSha1Hash            0                       # Class of executed instruction
system.switch_cpus.op_class::SimdSha1Hash2            0                       # Class of executed instruction
system.switch_cpus.op_class::SimdSha256Hash            0                       # Class of executed instruction
system.switch_cpus.op_class::SimdSha256Hash2            0                       # Class of executed instruction
system.switch_cpus.op_class::SimdShaSigma2            0                       # Class of executed instruction
system.switch_cpus.op_class::SimdShaSigma3            0                       # Class of executed instruction
system.switch_cpus.op_class::SimdPredAlu            0                       # Class of executed instruction
system.switch_cpus.op_class::MemRead                0                       # Class of executed instruction
system.switch_cpus.op_class::MemWrite               0                       # Class of executed instruction
system.switch_cpus.op_class::FloatMemRead            0                       # Class of executed instruction
system.switch_cpus.op_class::FloatMemWrite            0                       # Class of executed instruction
system.switch_cpus.op_class::IprAccess              0                       # Class of executed instruction
system.switch_cpus.op_class::InstPrefetch            0                       # Class of executed instruction
system.switch_cpus.op_class::total                  0                       # Class of executed instruction
system.switch_cpus_1.branchPred.BTBCorrect            0                       # Number of correct BTB predictions (this stat may not work properly.
system.switch_cpus_1.branchPred.BTBHitPct          nan                       # BTB Hit Percentage
system.switch_cpus_1.branchPred.BTBHits             0                       # Number of BTB hits
system.switch_cpus_1.branchPred.BTBLookups            0                       # Number of BTB lookups
system.switch_cpus_1.branchPred.RASInCorrect         2725                       # Number of incorrect RAS predictions.
system.switch_cpus_1.branchPred.condIncorrect     19345629                       # Number of conditional branches incorrect
system.switch_cpus_1.branchPred.condPredicted    149536727                       # Number of conditional branches predicted
system.switch_cpus_1.branchPred.indirectHits     24021244                       # Number of indirect target hits.
system.switch_cpus_1.branchPred.indirectLookups     94289761                       # Number of indirect predictor lookups.
system.switch_cpus_1.branchPred.indirectMisses     70268517                       # Number of indirect misses.
system.switch_cpus_1.branchPred.lookups     174289606                       # Number of BP lookups
system.switch_cpus_1.branchPred.usedRAS       7752491                       # Number of times the RAS was used to get a target.
system.switch_cpus_1.branchPredindirectMispredicted     14879652                       # Number of mispredicted indirect branches.
system.switch_cpus_1.cc_regfile_reads       369584112                       # number of cc regfile reads
system.switch_cpus_1.cc_regfile_writes      249820286                       # number of cc regfile writes
system.switch_cpus_1.commit.amos                    0                       # Number of atomic instructions committed
system.switch_cpus_1.commit.branchMispredicts     19345638                       # The number of times a branch was mispredicted
system.switch_cpus_1.commit.branches         57605408                       # Number of branches committed
system.switch_cpus_1.commit.bw_lim_events     30114658                       # number cycles where commit BW limit reached
system.switch_cpus_1.commit.commitNonSpecStalls           15                       # The number of times commit has been forced to stall to communicate backwards
system.switch_cpus_1.commit.commitSquashedInsts    534348857                       # The number of squashed insts skipped by commit
system.switch_cpus_1.commit.committedInsts    250000000                       # Number of instructions committed
system.switch_cpus_1.commit.committedOps    472981245                       # Number of ops (including micro ops) committed
system.switch_cpus_1.commit.committed_per_cycle::samples    264043097                       # Number of insts commited each cycle
system.switch_cpus_1.commit.committed_per_cycle::mean     1.791303                       # Number of insts commited each cycle
system.switch_cpus_1.commit.committed_per_cycle::stdev     2.713109                       # Number of insts commited each cycle
system.switch_cpus_1.commit.committed_per_cycle::underflows            0      0.00%      0.00% # Number of insts commited each cycle
system.switch_cpus_1.commit.committed_per_cycle::0    144427856     54.70%     54.70% # Number of insts commited each cycle
system.switch_cpus_1.commit.committed_per_cycle::1     34613169     13.11%     67.81% # Number of insts commited each cycle
system.switch_cpus_1.commit.committed_per_cycle::2     14469244      5.48%     73.29% # Number of insts commited each cycle
system.switch_cpus_1.commit.committed_per_cycle::3     17631958      6.68%     79.97% # Number of insts commited each cycle
system.switch_cpus_1.commit.committed_per_cycle::4      8966341      3.40%     83.36% # Number of insts commited each cycle
system.switch_cpus_1.commit.committed_per_cycle::5      6278322      2.38%     85.74% # Number of insts commited each cycle
system.switch_cpus_1.commit.committed_per_cycle::6      4431367      1.68%     87.42% # Number of insts commited each cycle
system.switch_cpus_1.commit.committed_per_cycle::7      3110182      1.18%     88.59% # Number of insts commited each cycle
system.switch_cpus_1.commit.committed_per_cycle::8     30114658     11.41%    100.00% # Number of insts commited each cycle
system.switch_cpus_1.commit.committed_per_cycle::overflows            0      0.00%    100.00% # Number of insts commited each cycle
system.switch_cpus_1.commit.committed_per_cycle::min_value            0                       # Number of insts commited each cycle
system.switch_cpus_1.commit.committed_per_cycle::max_value            8                       # Number of insts commited each cycle
system.switch_cpus_1.commit.committed_per_cycle::total    264043097                       # Number of insts commited each cycle
system.switch_cpus_1.commit.fp_insts              319                       # Number of committed floating point instructions.
system.switch_cpus_1.commit.function_calls      2438809                       # Number of function calls committed.
system.switch_cpus_1.commit.int_insts       471467943                       # Number of committed integer instructions.
system.switch_cpus_1.commit.loads            60308268                       # Number of loads committed
system.switch_cpus_1.commit.membars                 0                       # Number of memory barriers committed
system.switch_cpus_1.commit.op_class_0::No_OpClass      1447327      0.31%      0.31% # Class of committed instruction
system.switch_cpus_1.commit.op_class_0::IntAlu    385528062     81.51%     81.82% # Class of committed instruction
system.switch_cpus_1.commit.op_class_0::IntMult        51407      0.01%     81.83% # Class of committed instruction
system.switch_cpus_1.commit.op_class_0::IntDiv      1085156      0.23%     82.06% # Class of committed instruction
system.switch_cpus_1.commit.op_class_0::FloatAdd           18      0.00%     82.06% # Class of committed instruction
system.switch_cpus_1.commit.op_class_0::FloatCmp            0      0.00%     82.06% # Class of committed instruction
system.switch_cpus_1.commit.op_class_0::FloatCvt            0      0.00%     82.06% # Class of committed instruction
system.switch_cpus_1.commit.op_class_0::FloatMult            0      0.00%     82.06% # Class of committed instruction
system.switch_cpus_1.commit.op_class_0::FloatMultAcc            0      0.00%     82.06% # Class of committed instruction
system.switch_cpus_1.commit.op_class_0::FloatDiv            0      0.00%     82.06% # Class of committed instruction
system.switch_cpus_1.commit.op_class_0::FloatMisc            0      0.00%     82.06% # Class of committed instruction
system.switch_cpus_1.commit.op_class_0::FloatSqrt            0      0.00%     82.06% # Class of committed instruction
system.switch_cpus_1.commit.op_class_0::SimdAdd            0      0.00%     82.06% # Class of committed instruction
system.switch_cpus_1.commit.op_class_0::SimdAddAcc            0      0.00%     82.06% # Class of committed instruction
system.switch_cpus_1.commit.op_class_0::SimdAlu           24      0.00%     82.06% # Class of committed instruction
system.switch_cpus_1.commit.op_class_0::SimdCmp            0      0.00%     82.06% # Class of committed instruction
system.switch_cpus_1.commit.op_class_0::SimdCvt           52      0.00%     82.06% # Class of committed instruction
system.switch_cpus_1.commit.op_class_0::SimdMisc          138      0.00%     82.06% # Class of committed instruction
system.switch_cpus_1.commit.op_class_0::SimdMult            0      0.00%     82.06% # Class of committed instruction
system.switch_cpus_1.commit.op_class_0::SimdMultAcc            0      0.00%     82.06% # Class of committed instruction
system.switch_cpus_1.commit.op_class_0::SimdShift            0      0.00%     82.06% # Class of committed instruction
system.switch_cpus_1.commit.op_class_0::SimdShiftAcc            0      0.00%     82.06% # Class of committed instruction
system.switch_cpus_1.commit.op_class_0::SimdDiv            0      0.00%     82.06% # Class of committed instruction
system.switch_cpus_1.commit.op_class_0::SimdSqrt            0      0.00%     82.06% # Class of committed instruction
system.switch_cpus_1.commit.op_class_0::SimdFloatAdd            0      0.00%     82.06% # Class of committed instruction
system.switch_cpus_1.commit.op_class_0::SimdFloatAlu            0      0.00%     82.06% # Class of committed instruction
system.switch_cpus_1.commit.op_class_0::SimdFloatCmp            0      0.00%     82.06% # Class of committed instruction
system.switch_cpus_1.commit.op_class_0::SimdFloatCvt            2      0.00%     82.06% # Class of committed instruction
system.switch_cpus_1.commit.op_class_0::SimdFloatDiv            0      0.00%     82.06% # Class of committed instruction
system.switch_cpus_1.commit.op_class_0::SimdFloatMisc            0      0.00%     82.06% # Class of committed instruction
system.switch_cpus_1.commit.op_class_0::SimdFloatMult            0      0.00%     82.06% # Class of committed instruction
system.switch_cpus_1.commit.op_class_0::SimdFloatMultAcc            0      0.00%     82.06% # Class of committed instruction
system.switch_cpus_1.commit.op_class_0::SimdFloatSqrt            0      0.00%     82.06% # Class of committed instruction
system.switch_cpus_1.commit.op_class_0::SimdReduceAdd            0      0.00%     82.06% # Class of committed instruction
system.switch_cpus_1.commit.op_class_0::SimdReduceAlu            0      0.00%     82.06% # Class of committed instruction
system.switch_cpus_1.commit.op_class_0::SimdReduceCmp            0      0.00%     82.06% # Class of committed instruction
system.switch_cpus_1.commit.op_class_0::SimdFloatReduceAdd            0      0.00%     82.06% # Class of committed instruction
system.switch_cpus_1.commit.op_class_0::SimdFloatReduceCmp            0      0.00%     82.06% # Class of committed instruction
system.switch_cpus_1.commit.op_class_0::SimdAes            0      0.00%     82.06% # Class of committed instruction
system.switch_cpus_1.commit.op_class_0::SimdAesMix            0      0.00%     82.06% # Class of committed instruction
system.switch_cpus_1.commit.op_class_0::SimdSha1Hash            0      0.00%     82.06% # Class of committed instruction
system.switch_cpus_1.commit.op_class_0::SimdSha1Hash2            0      0.00%     82.06% # Class of committed instruction
system.switch_cpus_1.commit.op_class_0::SimdSha256Hash            0      0.00%     82.06% # Class of committed instruction
system.switch_cpus_1.commit.op_class_0::SimdSha256Hash2            0      0.00%     82.06% # Class of committed instruction
system.switch_cpus_1.commit.op_class_0::SimdShaSigma2            0      0.00%     82.06% # Class of committed instruction
system.switch_cpus_1.commit.op_class_0::SimdShaSigma3            0      0.00%     82.06% # Class of committed instruction
system.switch_cpus_1.commit.op_class_0::SimdPredAlu            0      0.00%     82.06% # Class of committed instruction
system.switch_cpus_1.commit.op_class_0::MemRead     60308233     12.75%     94.81% # Class of committed instruction
system.switch_cpus_1.commit.op_class_0::MemWrite     24560788      5.19%    100.00% # Class of committed instruction
system.switch_cpus_1.commit.op_class_0::FloatMemRead           35      0.00%    100.00% # Class of committed instruction
system.switch_cpus_1.commit.op_class_0::FloatMemWrite            3      0.00%    100.00% # Class of committed instruction
system.switch_cpus_1.commit.op_class_0::IprAccess            0      0.00%    100.00% # Class of committed instruction
system.switch_cpus_1.commit.op_class_0::InstPrefetch            0      0.00%    100.00% # Class of committed instruction
system.switch_cpus_1.commit.op_class_0::total    472981245                       # Class of committed instruction
system.switch_cpus_1.commit.refs             84869059                       # Number of memory references committed
system.switch_cpus_1.commit.swp_count               0                       # Number of s/w prefetches committed
system.switch_cpus_1.commit.vec_insts               0                       # Number of committed Vector instructions.
system.switch_cpus_1.committedInsts         250000000                       # Number of Instructions Simulated
system.switch_cpus_1.committedOps           472981245                       # Number of Ops (including micro ops) Simulated
system.switch_cpus_1.cpi                     1.397815                       # CPI: Cycles Per Instruction
system.switch_cpus_1.cpi_total               1.397815                       # CPI: Total CPI of All Threads
system.switch_cpus_1.decode.BlockedCycles     76236698                       # Number of cycles decode is blocked
system.switch_cpus_1.decode.DecodedInsts   1302420238                       # Number of instructions handled by decode
system.switch_cpus_1.decode.IdleCycles       73863540                       # Number of cycles decode is idle
system.switch_cpus_1.decode.RunCycles       163605286                       # Number of cycles decode is running
system.switch_cpus_1.decode.SquashCycles     19375547                       # Number of cycles decode is squashing
system.switch_cpus_1.decode.UnblockCycles     16002175                       # Number of cycles decode is unblocking
system.switch_cpus_1.dtb.rdAccesses          94978889                       # TLB accesses on read requests
system.switch_cpus_1.dtb.rdMisses              321156                       # TLB misses on read requests
system.switch_cpus_1.dtb.wrAccesses          33498072                       # TLB accesses on write requests
system.switch_cpus_1.dtb.wrMisses              112286                       # TLB misses on write requests
system.switch_cpus_1.fetch.Branches         174289606                       # Number of branches that fetch encountered
system.switch_cpus_1.fetch.CacheLines        79509772                       # Number of cache lines fetched
system.switch_cpus_1.fetch.Cycles           234943156                       # Number of cycles fetch has run and was not squashing or blocked
system.switch_cpus_1.fetch.IcacheSquashes      4652555                       # Number of outstanding Icache misses that were squashed
system.switch_cpus_1.fetch.IcacheWaitRetryStallCycles           76                       # Number of stall cycles due to full MSHR
system.switch_cpus_1.fetch.Insts            758838986                       # Number of instructions fetch has processed
system.switch_cpus_1.fetch.MiscStallCycles           15                       # Number of cycles fetch has spent waiting on interrupts, or bad addresses, or out of MSHRs
system.switch_cpus_1.fetch.PendingTrapStallCycles           84                       # Number of stall cycles due to pending traps
system.switch_cpus_1.fetch.SquashCycles      38751094                       # Number of cycles fetch has spent squashing
system.switch_cpus_1.fetch.branchRate        0.498749                       # Number of branch fetches per cycle
system.switch_cpus_1.fetch.icacheStallCycles     94764374                       # Number of cycles fetch is stalled on an Icache miss
system.switch_cpus_1.fetch.predictedBranches     31773735                       # Number of branches that fetch has predicted taken
system.switch_cpus_1.fetch.rate              2.171500                       # Number of inst fetches per cycle
system.switch_cpus_1.fetch.rateDist::samples    349083252                       # Number of instructions fetched each cycle (Total)
system.switch_cpus_1.fetch.rateDist::mean     4.124183                       # Number of instructions fetched each cycle (Total)
system.switch_cpus_1.fetch.rateDist::stdev     3.659654                       # Number of instructions fetched each cycle (Total)
system.switch_cpus_1.fetch.rateDist::underflows            0      0.00%      0.00% # Number of instructions fetched each cycle (Total)
system.switch_cpus_1.fetch.rateDist::0      134582761     38.55%     38.55% # Number of instructions fetched each cycle (Total)
system.switch_cpus_1.fetch.rateDist::1        7109767      2.04%     40.59% # Number of instructions fetched each cycle (Total)
system.switch_cpus_1.fetch.rateDist::2       11136346      3.19%     43.78% # Number of instructions fetched each cycle (Total)
system.switch_cpus_1.fetch.rateDist::3        8255938      2.37%     46.15% # Number of instructions fetched each cycle (Total)
system.switch_cpus_1.fetch.rateDist::4        9384404      2.69%     48.83% # Number of instructions fetched each cycle (Total)
system.switch_cpus_1.fetch.rateDist::5       14824195      4.25%     53.08% # Number of instructions fetched each cycle (Total)
system.switch_cpus_1.fetch.rateDist::6       15108027      4.33%     57.41% # Number of instructions fetched each cycle (Total)
system.switch_cpus_1.fetch.rateDist::7        6228498      1.78%     59.19% # Number of instructions fetched each cycle (Total)
system.switch_cpus_1.fetch.rateDist::8      142453316     40.81%    100.00% # Number of instructions fetched each cycle (Total)
system.switch_cpus_1.fetch.rateDist::overflows            0      0.00%    100.00% # Number of instructions fetched each cycle (Total)
system.switch_cpus_1.fetch.rateDist::min_value            0                       # Number of instructions fetched each cycle (Total)
system.switch_cpus_1.fetch.rateDist::max_value            8                       # Number of instructions fetched each cycle (Total)
system.switch_cpus_1.fetch.rateDist::total    349083252                       # Number of instructions fetched each cycle (Total)
system.switch_cpus_1.fp_regfile_reads             693                       # number of floating regfile reads
system.switch_cpus_1.fp_regfile_writes            338                       # number of floating regfile writes
system.switch_cpus_1.idleCycles                370573                       # Total number of cycles that the CPU has spent unscheduled due to idling
system.switch_cpus_1.iew.branchMispredicts     27159439                       # Number of branch mispredicts detected at execute
system.switch_cpus_1.iew.exec_branches       82904305                       # Number of branches executed
system.switch_cpus_1.iew.exec_nop                   0                       # number of nop insts executed
system.switch_cpus_1.iew.exec_rate           2.244264                       # Inst execution rate
system.switch_cpus_1.iew.exec_refs          128478221                       # number of memory reference insts executed
system.switch_cpus_1.iew.exec_stores         33497919                       # Number of stores executed
system.switch_cpus_1.iew.exec_swp                   0                       # number of swp insts executed
system.switch_cpus_1.iew.iewBlockCycles      65715049                       # Number of cycles IEW is blocking
system.switch_cpus_1.iew.iewDispLoadInsts    126210035                       # Number of dispatched load instructions
system.switch_cpus_1.iew.iewDispNonSpecInsts           25                       # Number of dispatched non-speculative instructions
system.switch_cpus_1.iew.iewDispSquashedInsts       332425                       # Number of squashed instructions skipped by dispatch
system.switch_cpus_1.iew.iewDispStoreInsts     52688634                       # Number of dispatched store instructions
system.switch_cpus_1.iew.iewDispatchedInsts   1007324939                       # Number of instructions dispatched to IQ
system.switch_cpus_1.iew.iewExecLoadInsts     94980302                       # Number of load instructions executed
system.switch_cpus_1.iew.iewExecSquashedInsts     49376464                       # Number of squashed instructions skipped in execute
system.switch_cpus_1.iew.iewExecutedInsts    784266732                       # Number of executed instructions
system.switch_cpus_1.iew.iewIQFullEvents         6828                       # Number of times the IQ has become full, causing a stall
system.switch_cpus_1.iew.iewIdleCycles              0                       # Number of cycles IEW is idle
system.switch_cpus_1.iew.iewLSQFullEvents       145629                       # Number of times the LSQ has become full, causing a stall
system.switch_cpus_1.iew.iewSquashCycles     19375547                       # Number of cycles IEW is squashing
system.switch_cpus_1.iew.iewUnblockCycles       155370                       # Number of cycles IEW is unblocking
system.switch_cpus_1.iew.lsq.thread0.blockedLoads            0                       # Number of blocked loads due to partial load-store forwarding
system.switch_cpus_1.iew.lsq.thread0.cacheBlocked          494                       # Number of times an access to memory failed due to the cache being blocked
system.switch_cpus_1.iew.lsq.thread0.forwLoads      3754920                       # Number of loads that had data forwarded from stores
system.switch_cpus_1.iew.lsq.thread0.ignoredResponses       215882                       # Number of memory responses ignored because the instruction is squashed
system.switch_cpus_1.iew.lsq.thread0.invAddrLoads            0                       # Number of loads ignored due to an invalid address
system.switch_cpus_1.iew.lsq.thread0.invAddrSwpfs            0                       # Number of software prefetches ignored due to an invalid address
system.switch_cpus_1.iew.lsq.thread0.memOrderViolation        46008                       # Number of memory ordering violations
system.switch_cpus_1.iew.lsq.thread0.rescheduledLoads        16732                       # Number of loads that were rescheduled
system.switch_cpus_1.iew.lsq.thread0.squashedLoads     65901754                       # Number of loads squashed
system.switch_cpus_1.iew.lsq.thread0.squashedStores     28127840                       # Number of stores squashed
system.switch_cpus_1.iew.memOrderViolationEvents        46008                       # Number of memory order violations
system.switch_cpus_1.iew.predictedNotTakenIncorrect     25926924                       # Number of branches that were predicted not taken incorrectly
system.switch_cpus_1.iew.predictedTakenIncorrect      1232515                       # Number of branches that were predicted taken incorrectly
system.switch_cpus_1.iew.wb_consumers       816635038                       # num instructions consuming a value
system.switch_cpus_1.iew.wb_count           766998864                       # cumulative count of insts written-back
system.switch_cpus_1.iew.wb_fanout           0.707426                       # average fanout of values written-back
system.switch_cpus_1.iew.wb_producers       577709139                       # num instructions producing a value
system.switch_cpus_1.iew.wb_rate             2.194850                       # insts written-back per cycle
system.switch_cpus_1.iew.wb_sent            773876075                       # cumulative count of insts sent to commit
system.switch_cpus_1.int_regfile_reads      913737775                       # number of integer regfile reads
system.switch_cpus_1.int_regfile_writes     649133190                       # number of integer regfile writes
system.switch_cpus_1.ipc                     0.715402                       # IPC: Instructions Per Cycle
system.switch_cpus_1.ipc_total               0.715402                       # IPC: Total IPC of All Threads
system.switch_cpus_1.iq.FU_type_0::No_OpClass     11808528      1.42%      1.42% # Type of FU issued
system.switch_cpus_1.iq.FU_type_0::IntAlu    678021963     81.33%     82.75% # Type of FU issued
system.switch_cpus_1.iq.FU_type_0::IntMult       159616      0.02%     82.77% # Type of FU issued
system.switch_cpus_1.iq.FU_type_0::IntDiv      1131660      0.14%     82.90% # Type of FU issued
system.switch_cpus_1.iq.FU_type_0::FloatAdd           18      0.00%     82.90% # Type of FU issued
system.switch_cpus_1.iq.FU_type_0::FloatCmp            0      0.00%     82.90% # Type of FU issued
system.switch_cpus_1.iq.FU_type_0::FloatCvt            0      0.00%     82.90% # Type of FU issued
system.switch_cpus_1.iq.FU_type_0::FloatMult            0      0.00%     82.90% # Type of FU issued
system.switch_cpus_1.iq.FU_type_0::FloatMultAcc            0      0.00%     82.90% # Type of FU issued
system.switch_cpus_1.iq.FU_type_0::FloatDiv            0      0.00%     82.90% # Type of FU issued
system.switch_cpus_1.iq.FU_type_0::FloatMisc            0      0.00%     82.90% # Type of FU issued
system.switch_cpus_1.iq.FU_type_0::FloatSqrt            0      0.00%     82.90% # Type of FU issued
system.switch_cpus_1.iq.FU_type_0::SimdAdd            0      0.00%     82.90% # Type of FU issued
system.switch_cpus_1.iq.FU_type_0::SimdAddAcc            0      0.00%     82.90% # Type of FU issued
system.switch_cpus_1.iq.FU_type_0::SimdAlu           24      0.00%     82.90% # Type of FU issued
system.switch_cpus_1.iq.FU_type_0::SimdCmp            0      0.00%     82.90% # Type of FU issued
system.switch_cpus_1.iq.FU_type_0::SimdCvt           80      0.00%     82.90% # Type of FU issued
system.switch_cpus_1.iq.FU_type_0::SimdMisc          168      0.00%     82.90% # Type of FU issued
system.switch_cpus_1.iq.FU_type_0::SimdMult            0      0.00%     82.90% # Type of FU issued
system.switch_cpus_1.iq.FU_type_0::SimdMultAcc            0      0.00%     82.90% # Type of FU issued
system.switch_cpus_1.iq.FU_type_0::SimdShift            0      0.00%     82.90% # Type of FU issued
system.switch_cpus_1.iq.FU_type_0::SimdShiftAcc            0      0.00%     82.90% # Type of FU issued
system.switch_cpus_1.iq.FU_type_0::SimdDiv            0      0.00%     82.90% # Type of FU issued
system.switch_cpus_1.iq.FU_type_0::SimdSqrt            0      0.00%     82.90% # Type of FU issued
system.switch_cpus_1.iq.FU_type_0::SimdFloatAdd            0      0.00%     82.90% # Type of FU issued
system.switch_cpus_1.iq.FU_type_0::SimdFloatAlu            0      0.00%     82.90% # Type of FU issued
system.switch_cpus_1.iq.FU_type_0::SimdFloatCmp            0      0.00%     82.90% # Type of FU issued
system.switch_cpus_1.iq.FU_type_0::SimdFloatCvt            6      0.00%     82.90% # Type of FU issued
system.switch_cpus_1.iq.FU_type_0::SimdFloatDiv            0      0.00%     82.90% # Type of FU issued
system.switch_cpus_1.iq.FU_type_0::SimdFloatMisc            0      0.00%     82.90% # Type of FU issued
system.switch_cpus_1.iq.FU_type_0::SimdFloatMult            0      0.00%     82.90% # Type of FU issued
system.switch_cpus_1.iq.FU_type_0::SimdFloatMultAcc            0      0.00%     82.90% # Type of FU issued
system.switch_cpus_1.iq.FU_type_0::SimdFloatSqrt            0      0.00%     82.90% # Type of FU issued
system.switch_cpus_1.iq.FU_type_0::SimdReduceAdd            0      0.00%     82.90% # Type of FU issued
system.switch_cpus_1.iq.FU_type_0::SimdReduceAlu            0      0.00%     82.90% # Type of FU issued
system.switch_cpus_1.iq.FU_type_0::SimdReduceCmp            0      0.00%     82.90% # Type of FU issued
system.switch_cpus_1.iq.FU_type_0::SimdFloatReduceAdd            0      0.00%     82.90% # Type of FU issued
system.switch_cpus_1.iq.FU_type_0::SimdFloatReduceCmp            0      0.00%     82.90% # Type of FU issued
system.switch_cpus_1.iq.FU_type_0::SimdAes            0      0.00%     82.90% # Type of FU issued
system.switch_cpus_1.iq.FU_type_0::SimdAesMix            0      0.00%     82.90% # Type of FU issued
system.switch_cpus_1.iq.FU_type_0::SimdSha1Hash            0      0.00%     82.90% # Type of FU issued
system.switch_cpus_1.iq.FU_type_0::SimdSha1Hash2            0      0.00%     82.90% # Type of FU issued
system.switch_cpus_1.iq.FU_type_0::SimdSha256Hash            0      0.00%     82.90% # Type of FU issued
system.switch_cpus_1.iq.FU_type_0::SimdSha256Hash2            0      0.00%     82.90% # Type of FU issued
system.switch_cpus_1.iq.FU_type_0::SimdShaSigma2            0      0.00%     82.90% # Type of FU issued
system.switch_cpus_1.iq.FU_type_0::SimdShaSigma3            0      0.00%     82.90% # Type of FU issued
system.switch_cpus_1.iq.FU_type_0::SimdPredAlu            0      0.00%     82.90% # Type of FU issued
system.switch_cpus_1.iq.FU_type_0::MemRead    104867101     12.58%     95.48% # Type of FU issued
system.switch_cpus_1.iq.FU_type_0::MemWrite     37653895      4.52%    100.00% # Type of FU issued
system.switch_cpus_1.iq.FU_type_0::FloatMemRead          103      0.00%    100.00% # Type of FU issued
system.switch_cpus_1.iq.FU_type_0::FloatMemWrite           42      0.00%    100.00% # Type of FU issued
system.switch_cpus_1.iq.FU_type_0::IprAccess            0      0.00%    100.00% # Type of FU issued
system.switch_cpus_1.iq.FU_type_0::InstPrefetch            0      0.00%    100.00% # Type of FU issued
system.switch_cpus_1.iq.FU_type_0::total    833643204                       # Type of FU issued
system.switch_cpus_1.iq.fp_alu_accesses           510                       # Number of floating point alu accesses
system.switch_cpus_1.iq.fp_inst_queue_reads         1017                       # Number of floating instruction queue reads
system.switch_cpus_1.iq.fp_inst_queue_wakeup_accesses          451                       # Number of floating instruction queue wakeup accesses
system.switch_cpus_1.iq.fp_inst_queue_writes          759                       # Number of floating instruction queue writes
system.switch_cpus_1.iq.fu_busy_cnt          28094433                       # FU busy when requested
system.switch_cpus_1.iq.fu_busy_rate         0.033701                       # FU busy rate (busy events/executed inst)
system.switch_cpus_1.iq.fu_full::No_OpClass            0      0.00%      0.00% # attempts to use FU when none available
system.switch_cpus_1.iq.fu_full::IntAlu      25731479     91.59%     91.59% # attempts to use FU when none available
system.switch_cpus_1.iq.fu_full::IntMult            0      0.00%     91.59% # attempts to use FU when none available
system.switch_cpus_1.iq.fu_full::IntDiv             0      0.00%     91.59% # attempts to use FU when none available
system.switch_cpus_1.iq.fu_full::FloatAdd            0      0.00%     91.59% # attempts to use FU when none available
system.switch_cpus_1.iq.fu_full::FloatCmp            0      0.00%     91.59% # attempts to use FU when none available
system.switch_cpus_1.iq.fu_full::FloatCvt            0      0.00%     91.59% # attempts to use FU when none available
system.switch_cpus_1.iq.fu_full::FloatMult            0      0.00%     91.59% # attempts to use FU when none available
system.switch_cpus_1.iq.fu_full::FloatMultAcc            0      0.00%     91.59% # attempts to use FU when none available
system.switch_cpus_1.iq.fu_full::FloatDiv            0      0.00%     91.59% # attempts to use FU when none available
system.switch_cpus_1.iq.fu_full::FloatMisc            0      0.00%     91.59% # attempts to use FU when none available
system.switch_cpus_1.iq.fu_full::FloatSqrt            0      0.00%     91.59% # attempts to use FU when none available
system.switch_cpus_1.iq.fu_full::SimdAdd            0      0.00%     91.59% # attempts to use FU when none available
system.switch_cpus_1.iq.fu_full::SimdAddAcc            0      0.00%     91.59% # attempts to use FU when none available
system.switch_cpus_1.iq.fu_full::SimdAlu            0      0.00%     91.59% # attempts to use FU when none available
system.switch_cpus_1.iq.fu_full::SimdCmp            0      0.00%     91.59% # attempts to use FU when none available
system.switch_cpus_1.iq.fu_full::SimdCvt            0      0.00%     91.59% # attempts to use FU when none available
system.switch_cpus_1.iq.fu_full::SimdMisc            0      0.00%     91.59% # attempts to use FU when none available
system.switch_cpus_1.iq.fu_full::SimdMult            0      0.00%     91.59% # attempts to use FU when none available
system.switch_cpus_1.iq.fu_full::SimdMultAcc            0      0.00%     91.59% # attempts to use FU when none available
system.switch_cpus_1.iq.fu_full::SimdShift            0      0.00%     91.59% # attempts to use FU when none available
system.switch_cpus_1.iq.fu_full::SimdShiftAcc            0      0.00%     91.59% # attempts to use FU when none available
system.switch_cpus_1.iq.fu_full::SimdDiv            0      0.00%     91.59% # attempts to use FU when none available
system.switch_cpus_1.iq.fu_full::SimdSqrt            0      0.00%     91.59% # attempts to use FU when none available
system.switch_cpus_1.iq.fu_full::SimdFloatAdd            0      0.00%     91.59% # attempts to use FU when none available
system.switch_cpus_1.iq.fu_full::SimdFloatAlu            0      0.00%     91.59% # attempts to use FU when none available
system.switch_cpus_1.iq.fu_full::SimdFloatCmp            0      0.00%     91.59% # attempts to use FU when none available
system.switch_cpus_1.iq.fu_full::SimdFloatCvt            0      0.00%     91.59% # attempts to use FU when none available
system.switch_cpus_1.iq.fu_full::SimdFloatDiv            0      0.00%     91.59% # attempts to use FU when none available
system.switch_cpus_1.iq.fu_full::SimdFloatMisc            0      0.00%     91.59% # attempts to use FU when none available
system.switch_cpus_1.iq.fu_full::SimdFloatMult            0      0.00%     91.59% # attempts to use FU when none available
system.switch_cpus_1.iq.fu_full::SimdFloatMultAcc            0      0.00%     91.59% # attempts to use FU when none available
system.switch_cpus_1.iq.fu_full::SimdFloatSqrt            0      0.00%     91.59% # attempts to use FU when none available
system.switch_cpus_1.iq.fu_full::SimdReduceAdd            0      0.00%     91.59% # attempts to use FU when none available
system.switch_cpus_1.iq.fu_full::SimdReduceAlu            0      0.00%     91.59% # attempts to use FU when none available
system.switch_cpus_1.iq.fu_full::SimdReduceCmp            0      0.00%     91.59% # attempts to use FU when none available
system.switch_cpus_1.iq.fu_full::SimdFloatReduceAdd            0      0.00%     91.59% # attempts to use FU when none available
system.switch_cpus_1.iq.fu_full::SimdFloatReduceCmp            0      0.00%     91.59% # attempts to use FU when none available
system.switch_cpus_1.iq.fu_full::SimdAes            0      0.00%     91.59% # attempts to use FU when none available
system.switch_cpus_1.iq.fu_full::SimdAesMix            0      0.00%     91.59% # attempts to use FU when none available
system.switch_cpus_1.iq.fu_full::SimdSha1Hash            0      0.00%     91.59% # attempts to use FU when none available
system.switch_cpus_1.iq.fu_full::SimdSha1Hash2            0      0.00%     91.59% # attempts to use FU when none available
system.switch_cpus_1.iq.fu_full::SimdSha256Hash            0      0.00%     91.59% # attempts to use FU when none available
system.switch_cpus_1.iq.fu_full::SimdSha256Hash2            0      0.00%     91.59% # attempts to use FU when none available
system.switch_cpus_1.iq.fu_full::SimdShaSigma2            0      0.00%     91.59% # attempts to use FU when none available
system.switch_cpus_1.iq.fu_full::SimdShaSigma3            0      0.00%     91.59% # attempts to use FU when none available
system.switch_cpus_1.iq.fu_full::SimdPredAlu            0      0.00%     91.59% # attempts to use FU when none available
system.switch_cpus_1.iq.fu_full::MemRead      1809820      6.44%     98.03% # attempts to use FU when none available
system.switch_cpus_1.iq.fu_full::MemWrite       553126      1.97%    100.00% # attempts to use FU when none available
system.switch_cpus_1.iq.fu_full::FloatMemRead            0      0.00%    100.00% # attempts to use FU when none available
system.switch_cpus_1.iq.fu_full::FloatMemWrite            8      0.00%    100.00% # attempts to use FU when none available
system.switch_cpus_1.iq.fu_full::IprAccess            0      0.00%    100.00% # attempts to use FU when none available
system.switch_cpus_1.iq.fu_full::InstPrefetch            0      0.00%    100.00% # attempts to use FU when none available
system.switch_cpus_1.iq.int_alu_accesses    849928599                       # Number of integer alu accesses
system.switch_cpus_1.iq.int_inst_queue_reads   2057894271                       # Number of integer instruction queue reads
system.switch_cpus_1.iq.int_inst_queue_wakeup_accesses    766998413                       # Number of integer instruction queue wakeup accesses
system.switch_cpus_1.iq.int_inst_queue_writes   1541707794                       # Number of integer instruction queue writes
system.switch_cpus_1.iq.iqInstsAdded       1007324894                       # Number of instructions added to the IQ (excludes non-spec)
system.switch_cpus_1.iq.iqInstsIssued       833643204                       # Number of instructions issued
system.switch_cpus_1.iq.iqNonSpecInstsAdded           45                       # Number of non-speculative instructions added to the IQ
system.switch_cpus_1.iq.iqSquashedInstsExamined    534343646                       # Number of squashed instructions iterated over during squash; mainly for profiling
system.switch_cpus_1.iq.iqSquashedInstsIssued     13431203                       # Number of squashed instructions issued
system.switch_cpus_1.iq.iqSquashedNonSpecRemoved           30                       # Number of squashed non-spec instructions that were removed
system.switch_cpus_1.iq.iqSquashedOperandsExamined    705797005                       # Number of squashed operands that are examined and possibly removed from graph
system.switch_cpus_1.iq.issued_per_cycle::samples    349083252                       # Number of insts issued each cycle
system.switch_cpus_1.iq.issued_per_cycle::mean     2.388093                       # Number of insts issued each cycle
system.switch_cpus_1.iq.issued_per_cycle::stdev     2.728475                       # Number of insts issued each cycle
system.switch_cpus_1.iq.issued_per_cycle::underflows            0      0.00%      0.00% # Number of insts issued each cycle
system.switch_cpus_1.iq.issued_per_cycle::0    164495546     47.12%     47.12% # Number of insts issued each cycle
system.switch_cpus_1.iq.issued_per_cycle::1     22010220      6.31%     53.43% # Number of insts issued each cycle
system.switch_cpus_1.iq.issued_per_cycle::2     19912438      5.70%     59.13% # Number of insts issued each cycle
system.switch_cpus_1.iq.issued_per_cycle::3     18422115      5.28%     64.41% # Number of insts issued each cycle
system.switch_cpus_1.iq.issued_per_cycle::4     23883719      6.84%     71.25% # Number of insts issued each cycle
system.switch_cpus_1.iq.issued_per_cycle::5     28277210      8.10%     79.35% # Number of insts issued each cycle
system.switch_cpus_1.iq.issued_per_cycle::6     37672702     10.79%     90.14% # Number of insts issued each cycle
system.switch_cpus_1.iq.issued_per_cycle::7     21689791      6.21%     96.36% # Number of insts issued each cycle
system.switch_cpus_1.iq.issued_per_cycle::8     12719511      3.64%    100.00% # Number of insts issued each cycle
system.switch_cpus_1.iq.issued_per_cycle::overflows            0      0.00%    100.00% # Number of insts issued each cycle
system.switch_cpus_1.iq.issued_per_cycle::min_value            0                       # Number of insts issued each cycle
system.switch_cpus_1.iq.issued_per_cycle::max_value            8                       # Number of insts issued each cycle
system.switch_cpus_1.iq.issued_per_cycle::total    349083252                       # Number of insts issued each cycle
system.switch_cpus_1.iq.rate                 2.385560                       # Inst issue rate
system.switch_cpus_1.iq.vec_alu_accesses            0                       # Number of vector alu accesses
system.switch_cpus_1.iq.vec_inst_queue_reads            0                       # Number of vector instruction queue reads
system.switch_cpus_1.iq.vec_inst_queue_wakeup_accesses            0                       # Number of vector instruction queue wakeup accesses
system.switch_cpus_1.iq.vec_inst_queue_writes            0                       # Number of vector instruction queue writes
system.switch_cpus_1.itb.rdAccesses                 0                       # TLB accesses on read requests
system.switch_cpus_1.itb.rdMisses                   0                       # TLB misses on read requests
system.switch_cpus_1.itb.wrAccesses          79509787                       # TLB accesses on write requests
system.switch_cpus_1.itb.wrMisses                  56                       # TLB misses on write requests
system.switch_cpus_1.memDep0.conflictingLoads      4702952                       # Number of conflicting loads.
system.switch_cpus_1.memDep0.conflictingStores      3477242                       # Number of conflicting stores.
system.switch_cpus_1.memDep0.insertedLoads    126210035                       # Number of loads inserted to the mem dependence unit.
system.switch_cpus_1.memDep0.insertedStores     52688634                       # Number of stores inserted to the mem dependence unit.
system.switch_cpus_1.misc_regfile_reads     343021871                       # number of misc regfile reads
system.switch_cpus_1.misc_regfile_writes           24                       # number of misc regfile writes
system.switch_cpus_1.numCycles              349453825                       # number of cpu cycles simulated
system.switch_cpus_1.numWorkItemsCompleted            0                       # number of work items this cpu completed
system.switch_cpus_1.numWorkItemsStarted            0                       # number of work items this cpu started
system.switch_cpus_1.rename.BlockCycles      76047507                       # Number of cycles rename is blocking
system.switch_cpus_1.rename.CommittedMaps    567657145                       # Number of HB maps that are committed
system.switch_cpus_1.rename.IQFullEvents       369788                       # Number of times rename has blocked due to IQ full
system.switch_cpus_1.rename.IdleCycles       86384659                       # Number of cycles rename is idle
system.switch_cpus_1.rename.LQFullEvents       381173                       # Number of times rename has blocked due to LQ full
system.switch_cpus_1.rename.ROBFullEvents       604148                       # Number of times rename has blocked due to ROB full
system.switch_cpus_1.rename.RenameLookups   2766524402                       # Number of register rename lookups that rename has made
system.switch_cpus_1.rename.RenamedInsts   1204423053                       # Number of instructions processed by rename
system.switch_cpus_1.rename.RenamedOperands   1397652891                       # Number of destination operands rename has renamed
system.switch_cpus_1.rename.RunCycles       164375413                       # Number of cycles rename is running
system.switch_cpus_1.rename.SQFullEvents       182179                       # Number of times rename has blocked due to SQ full
system.switch_cpus_1.rename.SquashCycles     19375547                       # Number of cycles rename is squashing
system.switch_cpus_1.rename.UnblockCycles      2899716                       # Number of cycles rename is unblocking
system.switch_cpus_1.rename.UndoneMaps      829995684                       # Number of HB maps that are undone due to squashing
system.switch_cpus_1.rename.fp_rename_lookups          782                       # Number of floating rename lookups
system.switch_cpus_1.rename.int_rename_lookups   1563380985                       # Number of integer rename lookups
system.switch_cpus_1.rename.serializeStallCycles          405                       # count of cycles rename stalled for serializing inst
system.switch_cpus_1.rename.serializingInsts           15                       # count of serializing insts renamed
system.switch_cpus_1.rename.skidInsts        14020652                       # count of insts added to the skid buffer
system.switch_cpus_1.rename.tempSerializingInsts           15                       # count of temporary serializing insts renamed
system.switch_cpus_1.rob.rob_reads         1241258541                       # The number of ROB reads
system.switch_cpus_1.rob.rob_writes        2101768277                       # The number of ROB writes
system.switch_cpus_1.timesIdled                 52255                       # Number of times that the entire CPU went into an idle state and unscheduled itself
system.tol2bus.snoop_filter.hit_multi_requests            0                       # Number of requests hitting in the snoop filter with multiple (>1) holders of the requested data.
system.tol2bus.snoop_filter.hit_multi_snoops            0                       # Number of snoops hitting in the snoop filter with multiple (>1) holders of the requested data.
system.tol2bus.snoop_filter.hit_single_requests       807676                       # Number of requests hitting in the snoop filter with a single holder of the requested data.
system.tol2bus.snoop_filter.hit_single_snoops          182                       # Number of snoops hitting in the snoop filter with a single holder of the requested data.
system.tol2bus.snoop_filter.tot_requests      1524249                       # Total number of requests made to the snoop filter.
system.tol2bus.snoop_filter.tot_snoops            182                       # Total number of snoops made to the snoop filter.
system.tol3bus.snoop_filter.hit_multi_requests            0                       # Number of requests hitting in the snoop filter with multiple (>1) holders of the requested data.
system.tol3bus.snoop_filter.hit_multi_snoops            0                       # Number of snoops hitting in the snoop filter with multiple (>1) holders of the requested data.
system.tol3bus.snoop_filter.hit_single_requests       281137                       # Number of requests hitting in the snoop filter with a single holder of the requested data.
system.tol3bus.snoop_filter.hit_single_snoops          923                       # Number of snoops hitting in the snoop filter with a single holder of the requested data.
system.tol3bus.snoop_filter.tot_requests       507365                       # Total number of requests made to the snoop filter.
system.tol3bus.snoop_filter.tot_snoops            923                       # Total number of snoops made to the snoop filter.
system.membus.trans_dist::ReadResp              73992                       # Transaction distribution
system.membus.trans_dist::WritebackDirty        62228                       # Transaction distribution
system.membus.trans_dist::CleanEvict            16193                       # Transaction distribution
system.membus.trans_dist::UpgradeReq                1                       # Transaction distribution
system.membus.trans_dist::ReadExReq              4526                       # Transaction distribution
system.membus.trans_dist::ReadExResp             4526                       # Transaction distribution
system.membus.trans_dist::ReadSharedReq         73992                       # Transaction distribution
system.membus.pkt_count_system.l3.mem_side::system.mem_ctrls.port       235458                       # Packet count per connected master and slave (bytes)
system.membus.pkt_count_system.l3.mem_side::total       235458                       # Packet count per connected master and slave (bytes)
system.membus.pkt_count::total                 235458                       # Packet count per connected master and slave (bytes)
system.membus.pkt_size_system.l3.mem_side::system.mem_ctrls.port      9007744                       # Cumulative packet size per connected master and slave (bytes)
system.membus.pkt_size_system.l3.mem_side::total      9007744                       # Cumulative packet size per connected master and slave (bytes)
system.membus.pkt_size::total                 9007744                       # Cumulative packet size per connected master and slave (bytes)
system.membus.snoops                                0                       # Total snoops (count)
system.membus.snoopTraffic                          0                       # Total snoop traffic (bytes)
system.membus.snoop_fanout::samples             78519                       # Request fanout histogram
system.membus.snoop_fanout::mean                    0                       # Request fanout histogram
system.membus.snoop_fanout::stdev                   0                       # Request fanout histogram
system.membus.snoop_fanout::underflows              0      0.00%      0.00% # Request fanout histogram
system.membus.snoop_fanout::0                   78519    100.00%    100.00% # Request fanout histogram
system.membus.snoop_fanout::1                       0      0.00%    100.00% # Request fanout histogram
system.membus.snoop_fanout::overflows               0      0.00%    100.00% # Request fanout histogram
system.membus.snoop_fanout::min_value               0                       # Request fanout histogram
system.membus.snoop_fanout::max_value               0                       # Request fanout histogram
system.membus.snoop_fanout::total               78519                       # Request fanout histogram
system.membus.reqLayer2.occupancy           423028500                       # Layer occupancy (ticks)
system.membus.reqLayer2.utilization               0.2                       # Layer utilization (%)
system.membus.respLayer1.occupancy          430475500                       # Layer occupancy (ticks)
system.membus.respLayer1.utilization              0.2                       # Layer utilization (%)
system.membus.power_state.pwrStateResidencyTicks::UNDEFINED 1385700820000                       # Cumulative time (in ticks) in various power states
system.switch_cpus_1.dtb.walker.power_state.pwrStateResidencyTicks::UNDEFINED 1385700820000                       # Cumulative time (in ticks) in various power states
system.switch_cpus_1.itb.walker.power_state.pwrStateResidencyTicks::UNDEFINED 1385700820000                       # Cumulative time (in ticks) in various power states
system.switch_cpus_1.power_state.pwrStateResidencyTicks::OFF 1385700820000                       # Cumulative time (in ticks) in various power states
system.switch_cpus.dtb.walker.power_state.pwrStateResidencyTicks::UNDEFINED 1385700820000                       # Cumulative time (in ticks) in various power states
system.switch_cpus.itb.walker.power_state.pwrStateResidencyTicks::UNDEFINED 1385700820000                       # Cumulative time (in ticks) in various power states
system.switch_cpus.power_state.numTransitions            1                       # Number of power state transitions
system.switch_cpus.power_state.pwrStateResidencyTicks::OFF 1385700820000                       # Cumulative time (in ticks) in various power states
system.tol2bus.trans_dist::ReadResp            575559                       # Transaction distribution
system.tol2bus.trans_dist::WritebackDirty       294995                       # Transaction distribution
system.tol2bus.trans_dist::WritebackClean       265593                       # Transaction distribution
system.tol2bus.trans_dist::CleanEvict          220101                       # Transaction distribution
system.tol2bus.trans_dist::UpgradeReq           91103                       # Transaction distribution
system.tol2bus.trans_dist::UpgradeResp          91103                       # Transaction distribution
system.tol2bus.trans_dist::ReadExReq           141014                       # Transaction distribution
system.tol2bus.trans_dist::ReadExResp          141014                       # Transaction distribution
system.tol2bus.trans_dist::ReadCleanReq        575559                       # Transaction distribution
system.tol2bus.pkt_count_system.cpu.icache.mem_side::system.l2.cpu_side       796779                       # Packet count per connected master and slave (bytes)
system.tol2bus.pkt_count_system.cpu.dcache.mem_side::system.l2.cpu_side      1535146                       # Packet count per connected master and slave (bytes)
system.tol2bus.pkt_count::total               2331925                       # Packet count per connected master and slave (bytes)
system.tol2bus.pkt_size_system.cpu.icache.mem_side::system.l2.cpu_side     33995904                       # Cumulative packet size per connected master and slave (bytes)
system.tol2bus.pkt_size_system.cpu.dcache.mem_side::system.l2.cpu_side     43721088                       # Cumulative packet size per connected master and slave (bytes)
system.tol2bus.pkt_size::total               77716992                       # Cumulative packet size per connected master and slave (bytes)
system.tol2bus.snoops                           64116                       # Total snoops (count)
system.tol2bus.snoopTraffic                   4021312                       # Total snoop traffic (bytes)
system.tol2bus.snoop_fanout::samples           871792                       # Request fanout histogram
system.tol2bus.snoop_fanout::mean            0.000209                       # Request fanout histogram
system.tol2bus.snoop_fanout::stdev           0.014447                       # Request fanout histogram
system.tol2bus.snoop_fanout::underflows             0      0.00%      0.00% # Request fanout histogram
system.tol2bus.snoop_fanout::0                 871610     99.98%     99.98% # Request fanout histogram
system.tol2bus.snoop_fanout::1                    182      0.02%    100.00% # Request fanout histogram
system.tol2bus.snoop_fanout::2                      0      0.00%    100.00% # Request fanout histogram
system.tol2bus.snoop_fanout::3                      0      0.00%    100.00% # Request fanout histogram
system.tol2bus.snoop_fanout::4                      0      0.00%    100.00% # Request fanout histogram
system.tol2bus.snoop_fanout::overflows              0      0.00%    100.00% # Request fanout histogram
system.tol2bus.snoop_fanout::min_value              0                       # Request fanout histogram
system.tol2bus.snoop_fanout::max_value              1                       # Request fanout histogram
system.tol2bus.snoop_fanout::total             871792                       # Request fanout histogram
system.tol2bus.reqLayer0.occupancy         1259879500                       # Layer occupancy (ticks)
system.tol2bus.reqLayer0.utilization              0.7                       # Layer utilization (%)
system.tol2bus.respLayer1.occupancy         722196150                       # Layer occupancy (ticks)
system.tol2bus.respLayer1.utilization             0.4                       # Layer utilization (%)
system.tol2bus.respLayer0.occupancy         398459859                       # Layer occupancy (ticks)
system.tol2bus.respLayer0.utilization             0.2                       # Layer utilization (%)
system.tol2bus.power_state.pwrStateResidencyTicks::UNDEFINED 1385700820000                       # Cumulative time (in ticks) in various power states
system.voltage_domain.voltage                       1                       # Voltage in Volts
system.clk_domain.clock                          1000                       # Clock period in ticks
system.l2.demand_hits::.switch_cpus_1.inst       265198                       # number of demand (read+write) hits
system.l2.demand_hits::.switch_cpus_1.data       225147                       # number of demand (read+write) hits
system.l2.demand_hits::total                   490345                       # number of demand (read+write) hits
system.l2.overall_hits::.switch_cpus_1.inst       265198                       # number of overall hits
system.l2.overall_hits::.switch_cpus_1.data       225147                       # number of overall hits
system.l2.overall_hits::total                  490345                       # number of overall hits
system.l2.demand_misses::.switch_cpus_1.inst          395                       # number of demand (read+write) misses
system.l2.demand_misses::.switch_cpus_1.data       225833                       # number of demand (read+write) misses
system.l2.demand_misses::total                 226228                       # number of demand (read+write) misses
system.l2.overall_misses::.switch_cpus_1.inst          395                       # number of overall misses
system.l2.overall_misses::.switch_cpus_1.data       225833                       # number of overall misses
system.l2.overall_misses::total                226228                       # number of overall misses
system.l2.demand_miss_latency::.switch_cpus_1.inst     38863000                       # number of demand (read+write) miss cycles
system.l2.demand_miss_latency::.switch_cpus_1.data  12723376000                       # number of demand (read+write) miss cycles
system.l2.demand_miss_latency::total      12762239000                       # number of demand (read+write) miss cycles
system.l2.overall_miss_latency::.switch_cpus_1.inst     38863000                       # number of overall miss cycles
system.l2.overall_miss_latency::.switch_cpus_1.data  12723376000                       # number of overall miss cycles
system.l2.overall_miss_latency::total     12762239000                       # number of overall miss cycles
system.l2.demand_accesses::.switch_cpus_1.inst       265593                       # number of demand (read+write) accesses
system.l2.demand_accesses::.switch_cpus_1.data       450980                       # number of demand (read+write) accesses
system.l2.demand_accesses::total               716573                       # number of demand (read+write) accesses
system.l2.overall_accesses::.switch_cpus_1.inst       265593                       # number of overall (read+write) accesses
system.l2.overall_accesses::.switch_cpus_1.data       450980                       # number of overall (read+write) accesses
system.l2.overall_accesses::total              716573                       # number of overall (read+write) accesses
system.l2.demand_miss_rate::.switch_cpus_1.inst     0.001487                       # miss rate for demand accesses
[...]
system.cpu.dcache.demand_miss_latency::total  25551115500                       # number of demand (read+write) miss cycles
system.cpu.dcache.overall_miss_latency::.switch_cpus.data   3440019000                       # number of overall miss cycles
system.cpu.dcache.overall_miss_latency::.switch_cpus_1.data  22111096500                       # number of overall miss cycles
system.cpu.dcache.overall_miss_latency::total  25551115500                       # number of overall miss cycles
system.cpu.dcache.demand_accesses::.cpu.data    383069519                       # number of demand (read+write) accesses
system.cpu.dcache.demand_accesses::.switch_cpus.data     16518877                       # number of demand (read+write) accesses
system.cpu.dcache.demand_accesses::.switch_cpus_1.data    115610456                       # number of demand (read+write) accesses
system.cpu.dcache.demand_accesses::total    515198852                       # number of demand (read+write) accesses
system.cpu.dcache.overall_accesses::.cpu.data    383069519                       # number of overall (read+write) accesses
system.cpu.dcache.overall_accesses::.switch_cpus.data     16518877                       # number of overall (read+write) accesses
system.cpu.dcache.overall_accesses::.switch_cpus_1.data    115610456                       # number of overall (read+write) accesses
system.cpu.dcache.overall_accesses::total    515198852                       # number of overall (read+write) accesses
system.cpu.dcache.demand_miss_rate::.cpu.data     0.026183                       # miss rate for demand accesses
system.cpu.dcache.demand_miss_rate::.switch_cpus.data     0.005795                       # miss rate for demand accesses
system.cpu.dcache.demand_miss_rate::.switch_cpus_1.data     0.006101                       # miss rate for demand accesses
system.cpu.dcache.demand_miss_rate::total     0.021023                       # miss rate for demand accesses
system.cpu.dcache.overall_miss_rate::.cpu.data     0.026183                       # miss rate for overall accesses
system.cpu.dcache.overall_miss_rate::.switch_cpus.data     0.005795                       # miss rate for overall accesses
system.cpu.dcache.overall_miss_rate::.switch_cpus_1.data     0.006101                       # miss rate for overall accesses
system.cpu.dcache.overall_miss_rate::total     0.021023                       # miss rate for overall accesses
system.cpu.dcache.demand_avg_miss_latency::.switch_cpus.data 35936.098866                       # average overall miss latency
system.cpu.dcache.demand_avg_miss_latency::.switch_cpus_1.data 31349.339230                       # average overall miss latency
system.cpu.dcache.demand_avg_miss_latency::total  2359.043865                       # average overall miss latency
system.cpu.dcache.overall_avg_miss_latency::.switch_cpus.data 35936.098866                       # average overall miss latency
system.cpu.dcache.overall_avg_miss_latency::.switch_cpus_1.data 31349.339230                       # average overall miss latency
system.cpu.dcache.overall_avg_miss_latency::total  2359.043865                       # average overall miss latency
system.cpu.dcache.blocked_cycles::no_mshrs         9769                       # number of cycles access was blocked
system.cpu.dcache.blocked_cycles::no_targets          189                       # number of cycles access was blocked
system.cpu.dcache.blocked::no_mshrs               808                       # number of cycles access was blocked
system.cpu.dcache.blocked::no_targets               1                       # number of cycles access was blocked
system.cpu.dcache.avg_blocked_cycles::no_mshrs    12.090347                       # average number of cycles each access was blocked
system.cpu.dcache.avg_blocked_cycles::no_targets          189                       # average number of cycles each access was blocked
system.cpu.dcache.writebacks::.writebacks      9403357                       # number of writebacks
system.cpu.dcache.writebacks::total           9403357                       # number of writebacks
system.cpu.dcache.demand_mshr_hits::.switch_cpus_1.data       165295                       # number of demand (read+write) MSHR hits
system.cpu.dcache.demand_mshr_hits::total       165295                       # number of demand (read+write) MSHR hits
system.cpu.dcache.overall_mshr_hits::.switch_cpus_1.data       165295                       # number of overall MSHR hits
system.cpu.dcache.overall_mshr_hits::total       165295                       # number of overall MSHR hits
system.cpu.dcache.demand_mshr_misses::.switch_cpus.data        95726                       # number of demand (read+write) MSHR misses
system.cpu.dcache.demand_mshr_misses::.switch_cpus_1.data       540018                       # number of demand (read+write) MSHR misses
system.cpu.dcache.demand_mshr_misses::total       635744                       # number of demand (read+write) MSHR misses
system.cpu.dcache.overall_mshr_misses::.switch_cpus.data        95726                       # number of overall MSHR misses
system.cpu.dcache.overall_mshr_misses::.switch_cpus_1.data       540018                       # number of overall MSHR misses
system.cpu.dcache.overall_mshr_misses::total       635744                       # number of overall MSHR misses
system.cpu.dcache.demand_mshr_miss_latency::.switch_cpus.data   3344293000                       # number of demand (read+write) MSHR miss cycles
system.cpu.dcache.demand_mshr_miss_latency::.switch_cpus_1.data  17585095500                       # number of demand (read+write) MSHR miss cycles
system.cpu.dcache.demand_mshr_miss_latency::total  20929388500                       # number of demand (read+write) MSHR miss cycles
system.cpu.dcache.overall_mshr_miss_latency::.switch_cpus.data   3344293000                       # number of overall MSHR miss cycles
system.cpu.dcache.overall_mshr_miss_latency::.switch_cpus_1.data  17585095500                       # number of overall MSHR miss cycles
system.cpu.dcache.overall_mshr_miss_latency::total  20929388500                       # number of overall MSHR miss cycles
system.cpu.dcache.demand_mshr_miss_rate::.switch_cpus.data     0.005795                       # mshr miss rate for demand accesses
system.cpu.dcache.demand_mshr_miss_rate::.switch_cpus_1.data     0.004671                       # mshr miss rate for demand accesses
system.cpu.dcache.demand_mshr_miss_rate::total     0.001234                       # mshr miss rate for demand accesses
system.cpu.dcache.overall_mshr_miss_rate::.switch_cpus.data     0.005795                       # mshr miss rate for overall accesses
system.cpu.dcache.overall_mshr_miss_rate::.switch_cpus_1.data     0.004671                       # mshr miss rate for overall accesses
system.cpu.dcache.overall_mshr_miss_rate::total     0.001234                       # mshr miss rate for overall accesses
system.cpu.dcache.demand_avg_mshr_miss_latency::.switch_cpus.data 34936.098866                       # average overall mshr miss latency
system.cpu.dcache.demand_avg_mshr_miss_latency::.switch_cpus_1.data 32563.906203                       # average overall mshr miss latency
system.cpu.dcache.demand_avg_mshr_miss_latency::total 32921.094812                       # average overall mshr miss latency
system.cpu.dcache.overall_avg_mshr_miss_latency::.switch_cpus.data 34936.098866                       # average overall mshr miss latency
system.cpu.dcache.overall_avg_mshr_miss_latency::.switch_cpus_1.data 32563.906203                       # average overall mshr miss latency
system.cpu.dcache.overall_avg_mshr_miss_latency::total 32921.094812                       # average overall mshr miss latency
system.cpu.dcache.replacements               10246123                       # number of replacements
system.cpu.dcache.ReadReq_hits::.cpu.data    226395386                       # number of ReadReq hits
system.cpu.dcache.ReadReq_hits::.switch_cpus.data     11964001                       # number of ReadReq hits
system.cpu.dcache.ReadReq_hits::.switch_cpus_1.data     90576470                       # number of ReadReq hits
system.cpu.dcache.ReadReq_hits::total       328935857                       # number of ReadReq hits
system.cpu.dcache.ReadReq_misses::.cpu.data       905512                       # number of ReadReq misses
system.cpu.dcache.ReadReq_misses::.switch_cpus.data        48838                       # number of ReadReq misses
system.cpu.dcache.ReadReq_misses::.switch_cpus_1.data       473196                       # number of ReadReq misses
system.cpu.dcache.ReadReq_misses::total       1427546                       # number of ReadReq misses
system.cpu.dcache.ReadReq_miss_latency::.switch_cpus.data   2541640500                       # number of ReadReq miss cycles
system.cpu.dcache.ReadReq_miss_latency::.switch_cpus_1.data  17897459500                       # number of ReadReq miss cycles
system.cpu.dcache.ReadReq_miss_latency::total  20439100000                       # number of ReadReq miss cycles
system.cpu.dcache.ReadReq_accesses::.cpu.data    227300898                       # number of ReadReq accesses(hits+misses)
system.cpu.dcache.ReadReq_accesses::.switch_cpus.data     12012839                       # number of ReadReq accesses(hits+misses)
system.cpu.dcache.ReadReq_accesses::.switch_cpus_1.data     91049666                       # number of ReadReq accesses(hits+misses)
system.cpu.dcache.ReadReq_accesses::total    330363403                       # number of ReadReq accesses(hits+misses)
system.cpu.dcache.ReadReq_miss_rate::.cpu.data     0.003984                       # miss rate for ReadReq accesses
system.cpu.dcache.ReadReq_miss_rate::.switch_cpus.data     0.004065                       # miss rate for ReadReq accesses
system.cpu.dcache.ReadReq_miss_rate::.switch_cpus_1.data     0.005197                       # miss rate for ReadReq accesses
system.cpu.dcache.ReadReq_miss_rate::total     0.004321                       # miss rate for ReadReq accesses
system.cpu.dcache.ReadReq_avg_miss_latency::.switch_cpus.data 52042.272411                       # average ReadReq miss latency
system.cpu.dcache.ReadReq_avg_miss_latency::.switch_cpus_1.data 37822.508009                       # average ReadReq miss latency
system.cpu.dcache.ReadReq_avg_miss_latency::total 14317.647207                       # average ReadReq miss latency
system.cpu.dcache.ReadReq_mshr_hits::.switch_cpus_1.data       163081                       # number of ReadReq MSHR hits
system.cpu.dcache.ReadReq_mshr_hits::total       163081                       # number of ReadReq MSHR hits
system.cpu.dcache.ReadReq_mshr_misses::.switch_cpus.data        48838                       # number of ReadReq MSHR misses
system.cpu.dcache.ReadReq_mshr_misses::.switch_cpus_1.data       310115                       # number of ReadReq MSHR misses
system.cpu.dcache.ReadReq_mshr_misses::total       358953                       # number of ReadReq MSHR misses
system.cpu.dcache.ReadReq_mshr_miss_latency::.switch_cpus.data   2492802500                       # number of ReadReq MSHR miss cycles
system.cpu.dcache.ReadReq_mshr_miss_latency::.switch_cpus_1.data  13605571500                       # number of ReadReq MSHR miss cycles
system.cpu.dcache.ReadReq_mshr_miss_latency::total  16098374000                       # number of ReadReq MSHR miss cycles
system.cpu.dcache.ReadReq_mshr_miss_rate::.switch_cpus.data     0.004065                       # mshr miss rate for ReadReq accesses
system.cpu.dcache.ReadReq_mshr_miss_rate::.switch_cpus_1.data     0.003406                       # mshr miss rate for ReadReq accesses
system.cpu.dcache.ReadReq_mshr_miss_rate::total     0.001087                       # mshr miss rate for ReadReq accesses
system.cpu.dcache.ReadReq_avg_mshr_miss_latency::.switch_cpus.data 51042.272411                       # average ReadReq mshr miss latency
system.cpu.dcache.ReadReq_avg_mshr_miss_latency::.switch_cpus_1.data 43872.664979                       # average ReadReq mshr miss latency
system.cpu.dcache.ReadReq_avg_mshr_miss_latency::total 44848.138893                       # average ReadReq mshr miss latency
system.cpu.dcache.WriteReq_hits::.cpu.data    146644040                       # number of WriteReq hits
system.cpu.dcache.WriteReq_hits::.switch_cpus.data      4459150                       # number of WriteReq hits
system.cpu.dcache.WriteReq_hits::.switch_cpus_1.data     24328673                       # number of WriteReq hits
system.cpu.dcache.WriteReq_hits::total      175431863                       # number of WriteReq hits
system.cpu.dcache.WriteReq_misses::.cpu.data      9124581                       # number of WriteReq misses
system.cpu.dcache.WriteReq_misses::.switch_cpus.data        46888                       # number of WriteReq misses
system.cpu.dcache.WriteReq_misses::.switch_cpus_1.data       232117                       # number of WriteReq misses
system.cpu.dcache.WriteReq_misses::total      9403586                       # number of WriteReq misses
system.cpu.dcache.WriteReq_miss_latency::.switch_cpus.data    898378500                       # number of WriteReq miss cycles
system.cpu.dcache.WriteReq_miss_latency::.switch_cpus_1.data   4213637000                       # number of WriteReq miss cycles
system.cpu.dcache.WriteReq_miss_latency::total   5112015500                       # number of WriteReq miss cycles
system.cpu.dcache.WriteReq_accesses::.cpu.data    155768621                       # number of WriteReq accesses(hits+misses)
system.cpu.dcache.WriteReq_accesses::.switch_cpus.data      4506038                       # number of WriteReq accesses(hits+misses)
system.cpu.dcache.WriteReq_accesses::.switch_cpus_1.data     24560790                       # number of WriteReq accesses(hits+misses)
system.cpu.dcache.WriteReq_accesses::total    184835449                       # number of WriteReq accesses(hits+misses)
system.cpu.dcache.WriteReq_miss_rate::.cpu.data     0.058578                       # miss rate for WriteReq accesses
system.cpu.dcache.WriteReq_miss_rate::.switch_cpus.data     0.010406                       # miss rate for WriteReq accesses
system.cpu.dcache.WriteReq_miss_rate::.switch_cpus_1.data     0.009451                       # miss rate for WriteReq accesses
system.cpu.dcache.WriteReq_miss_rate::total     0.050875                       # miss rate for WriteReq accesses
system.cpu.dcache.WriteReq_avg_miss_latency::.switch_cpus.data 19160.094267                       # average WriteReq miss latency
system.cpu.dcache.WriteReq_avg_miss_latency::.switch_cpus_1.data 18153.073665                       # average WriteReq miss latency
system.cpu.dcache.WriteReq_avg_miss_latency::total   543.624049                       # average WriteReq miss latency
system.cpu.dcache.WriteReq_mshr_hits::.switch_cpus_1.data         2214                       # number of WriteReq MSHR hits
system.cpu.dcache.WriteReq_mshr_hits::total         2214                       # number of WriteReq MSHR hits
system.cpu.dcache.WriteReq_mshr_misses::.switch_cpus.data        46888                       # number of WriteReq MSHR misses
system.cpu.dcache.WriteReq_mshr_misses::.switch_cpus_1.data       229903                       # number of WriteReq MSHR misses
system.cpu.dcache.WriteReq_mshr_misses::total       276791                       # number of WriteReq MSHR misses
system.cpu.dcache.WriteReq_mshr_miss_latency::.switch_cpus.data    851490500                       # number of WriteReq MSHR miss cycles
system.cpu.dcache.WriteReq_mshr_miss_latency::.switch_cpus_1.data   3979524000                       # number of WriteReq MSHR miss cycles
system.cpu.dcache.WriteReq_mshr_miss_latency::total   4831014500                       # number of WriteReq MSHR miss cycles
system.cpu.dcache.WriteReq_mshr_miss_rate::.switch_cpus.data     0.010406                       # mshr miss rate for WriteReq accesses
system.cpu.dcache.WriteReq_mshr_miss_rate::.switch_cpus_1.data     0.009361                       # mshr miss rate for WriteReq accesses
system.cpu.dcache.WriteReq_mshr_miss_rate::total     0.001497                       # mshr miss rate for WriteReq accesses
system.cpu.dcache.WriteReq_avg_mshr_miss_latency::.switch_cpus.data 18160.094267                       # average WriteReq mshr miss latency
system.cpu.dcache.WriteReq_avg_mshr_miss_latency::.switch_cpus_1.data 17309.578387                       # average WriteReq mshr miss latency
system.cpu.dcache.WriteReq_avg_mshr_miss_latency::total 17453.654562                       # average WriteReq mshr miss latency
system.cpu.dcache.power_state.pwrStateResidencyTicks::UNDEFINED 1385700820000                       # Cumulative time (in ticks) in various power states
system.cpu.dcache.tags.tagsinuse           511.995733                       # Cycle average of tags in use
system.cpu.dcache.tags.total_refs           515036068                       # Total number of references to valid blocks.
system.cpu.dcache.tags.sampled_refs          10246635                       # Sample count of references to valid blocks.
system.cpu.dcache.tags.avg_refs             50.263923                       # Average number of references to valid blocks.
system.cpu.dcache.tags.warmup_cycle              1500                       # Cycle when the warmup percentage was hit.
system.cpu.dcache.tags.occ_blocks::.cpu.data   419.305554                       # Average occupied blocks per requestor
system.cpu.dcache.tags.occ_blocks::.switch_cpus.data    30.371619                       # Average occupied blocks per requestor
system.cpu.dcache.tags.occ_blocks::.switch_cpus_1.data    62.318560                       # Average occupied blocks per requestor
system.cpu.dcache.tags.occ_percent::.cpu.data     0.818956                       # Average percentage of cache occupancy
system.cpu.dcache.tags.occ_percent::.switch_cpus.data     0.059320                       # Average percentage of cache occupancy
system.cpu.dcache.tags.occ_percent::.switch_cpus_1.data     0.121716                       # Average percentage of cache occupancy
system.cpu.dcache.tags.occ_percent::total     0.999992                       # Average percentage of cache occupancy
system.cpu.dcache.tags.occ_task_id_blocks::1024          512                       # Occupied blocks per task id
system.cpu.dcache.tags.age_task_id_blocks_1024::0           20                       # Occupied blocks per task id
system.cpu.dcache.tags.age_task_id_blocks_1024::1          202                       # Occupied blocks per task id
system.cpu.dcache.tags.age_task_id_blocks_1024::2          201                       # Occupied blocks per task id
system.cpu.dcache.tags.age_task_id_blocks_1024::3           63                       # Occupied blocks per task id
system.cpu.dcache.tags.age_task_id_blocks_1024::4           26                       # Occupied blocks per task id
system.cpu.dcache.tags.occ_task_id_percent::1024            1                       # Percentage of cache occupancy per task id
system.cpu.dcache.tags.tag_accesses        2071042043                       # Number of tag accesses
system.cpu.dcache.tags.data_accesses       2071042043                       # Number of data accesses
system.cpu.dcache.tags.power_state.pwrStateResidencyTicks::UNDEFINED 1385700820000                       # Cumulative time (in ticks) in various power states
system.cpu.power_state.numTransitions               2                       # Number of power state transitions
system.cpu.power_state.pwrStateResidencyTicks::ON 1123541832500                       # Cumulative time (in ticks) in various power states
system.cpu.power_state.pwrStateResidencyTicks::OFF 262158987500                       # Cumulative time (in ticks) in various power states

---------- End Simulation Statistics   ----------
