
---------- Begin Simulation Statistics ----------
final_tick                               1351670427500                       # Number of ticks from beginning of simulation (restored from checkpoints and never reset)
host_inst_rate                                 510038                       # Simulator instruction rate (inst/s)
host_mem_usage                                4573524                       # Number of bytes of host memory used
host_op_rate                                   995829                       # Simulator op (including micro ops) rate (op/s)
host_seconds                                  2548.83                       # Real time elapsed on the host
host_tick_rate                               36176594                       # Simulator tick rate (ticks/s)
sim_freq                                 1000000000000                       # Frequency of simulated ticks
sim_insts                                  1300000003                       # Number of instructions simulated
sim_ops                                    2538198256                       # Number of ops (including micro ops) simulated
sim_seconds                                  0.092208                       # Number of seconds simulated
sim_ticks                                 92207950500                       # Number of ticks simulated
system.cpu.committedInsts                           0                       # Number of instructions committed
system.cpu.committedOps                             0                       # Number of ops (including micro ops) committed
system.cpu.dtb.rdAccesses                           0                       # TLB accesses on read requests
system.cpu.dtb.rdMisses                             0                       # TLB misses on read requests
system.cpu.dtb.wrAccesses                           0                       # TLB accesses on write requests
system.cpu.dtb.wrMisses                             0                       # TLB misses on write requests
system.cpu.idle_fraction                            0                       # Percentage of idle cycles
system.cpu.itb.rdAccesses                           0                       # TLB accesses on read requests
system.cpu.itb.rdMisses                             0                       # TLB misses on read requests
system.cpu.itb.wrAccesses                           0                       # TLB accesses on write requests
system.cpu.itb.wrMisses                             0                       # TLB misses on write requests
system.cpu.not_idle_fraction                        1                       # Percentage of non-idle cycles
system.cpu.numCycles                                0                       # number of cpu cycles simulated
system.cpu.numWorkItemsCompleted                    0                       # number of work items this cpu completed
system.cpu.numWorkItemsStarted                      0                       # number of work items this cpu started
system.cpu.num_busy_cycles                          0                       # Number of busy cycles
system.cpu.num_conditional_control_insts            0                       # number of instructions that are conditional controls
system.cpu.num_fp_alu_accesses                      0                       # Number of float alu accesses
system.cpu.num_fp_insts                             0                       # number of float instructions
system.cpu.num_fp_register_reads                    0                       # number of times the floating registers were read
system.cpu.num_fp_register_writes                   0                       # number of times the floating registers were written
system.cpu.num_func_calls                           0                       # number of times a function call or return occured
system.cpu.num_idle_cycles                          0                       # Number of idle cycles
system.cpu.num_int_alu_accesses                     0                       # Number of integer alu accesses
system.cpu.num_int_insts                            0                       # number of integer instructions
system.cpu.num_int_register_reads                   0                       # number of times the integer registers were read
system.cpu.num_int_register_writes                  0                       # number of times the integer registers were written
system.cpu.num_load_insts                           0                       # Number of load instructions
system.cpu.num_mem_refs                             0                       # number of memory refs
system.cpu.num_store_insts                          0                       # Number of store instructions
system.cpu.num_vec_alu_accesses                     0                       # Number of vector alu accesses
system.cpu.num_vec_insts                            0                       # number of vector instructions
system.cpu.num_vec_register_reads                   0                       # number of times the vector registers were read
system.cpu.num_vec_register_writes                  0                       # number of times the vector registers were written
system.cpu.op_class::No_OpClass                     0                       # Class of executed instruction
system.cpu.op_class::IntAlu                         0                       # Class of executed instruction
system.cpu.op_class::IntMult                        0                       # Class of executed instruction
system.cpu.op_class::IntDiv                         0                       # Class of executed instruction
system.cpu.op_class::FloatAdd                       0                       # Class of executed instruction
system.cpu.op_class::FloatCmp                       0                       # Class of executed instruction
system.cpu.op_class::FloatCvt                       0                       # Class of executed instruction
system.cpu.op_class::FloatMult                      0                       # Class of executed instruction
system.cpu.op_class::FloatMultAcc                   0                       # Class of executed instruction
system.cpu.op_class::FloatDiv                       0                       # Class of executed instruction
system.cpu.op_class::FloatMisc                      0                       # Class of executed instruction
system.cpu.op_class::FloatSqrt                      0                       # Class of executed instruction
system.cpu.op_class::SimdAdd                        0                       # Class of executed instruction
system.cpu.op_class::SimdAddAcc                     0                       # Class of executed instruction
system.cpu.op_class::SimdAlu                        0                       # Class of executed instruction
system.cpu.op_class::SimdCmp                        0                       # Class of executed instruction
system.cpu.op_class::SimdCvt                        0                       # Class of executed instruction
system.cpu.op_class::SimdMisc                       0                       # Class of executed instruction
system.cpu.op_class::SimdMult                       0                       # Class of executed instruction
system.cpu.op_class::SimdMultAcc                    0                       # Class of executed instruction
system.cpu.op_class::SimdShift                      0                       # Class of executed instruction
system.cpu.op_class::SimdShiftAcc                   0                       # Class of executed instruction
system.cpu.op_class::SimdDiv                        0                       # Class of executed instruction
system.cpu.op_class::SimdSqrt                       0                       # Class of executed instruction
system.cpu.op_class::SimdFloatAdd                   0                       # Class of executed instruction
system.cpu.op_class::SimdFloatAlu                   0                       # Class of executed instruction
system.cpu.op_class::SimdFloatCmp                   0                       # Class of executed instruction
system.cpu.op_class::SimdFloatCvt                   0                       # Class of executed instruction
system.cpu.op_class::SimdFloatDiv                   0                       # Class of executed instruction
system.cpu.op_class::SimdFloatMisc                  0                       # Class of executed instruction
system.cpu.op_class::SimdFloatMult                  0                       # Class of executed instruction
system.cpu.op_class::SimdFloatMultAcc               0                       # Class of executed instruction
system.cpu.op_class::SimdFloatSqrt                  0                       # Class of executed instruction
system.cpu.op_class::SimdReduceAdd                  0                       # Class of executed instruction
system.cpu.op_class::SimdReduceAlu                  0                       # Class of executed instruction
system.cpu.op_class::SimdReduceCmp                  0                       # Class of executed instruction
system.cpu.op_class::SimdFloatReduceAdd             0                       # Class of executed instruction
system.cpu.op_class::SimdFloatReduceCmp             0                       # Class of executed instruction
system.cpu.op_class::SimdAes                        0                       # Class of executed instruction
system.cpu.op_class::SimdAesMix                     0                       # Class of executed instruction
system.cpu.op_class::SimdSha1Hash                   0                       # Class of executed instruction
system.cpu.op_class::SimdSha1Hash2                  0                       # Class of executed instruction
system.cpu.op_class::SimdSha256Hash                 0                       # Class of executed instruction
system.cpu.op_class::SimdSha256Hash2                0                       # Class of executed instruction
system.cpu.op_class::SimdShaSigma2                  0                       # Class of executed instruction
system.cpu.op_class::SimdShaSigma3                  0                       # Class of executed instruction
system.cpu.op_class::SimdPredAlu                    0                       # Class of executed instruction
system.cpu.op_class::MemRead                        0                       # Class of executed instruction
system.cpu.op_class::MemWrite                       0                       # Class of executed instruction
system.cpu.op_class::FloatMemRead                   0                       # Class of executed instruction
system.cpu.op_class::FloatMemWrite                  0                       # Class of executed instruction
system.cpu.op_class::IprAccess                      0                       # Class of executed instruction
system.cpu.op_class::InstPrefetch                   0                       # Class of executed instruction
system.cpu.op_class::total                          0                       # Class of executed instruction
system.cpu.workload.numSyscalls                   164                       # Number of system calls
system.membus.snoop_filter.hit_multi_requests            0                       # Number of requests hitting in the snoop filter with multiple (>1) holders of the requested data.
system.membus.snoop_filter.hit_multi_snoops            0                       # Number of snoops hitting in the snoop filter with multiple (>1) holders of the requested data.
system.membus.snoop_filter.hit_single_requests        87789                       # Number of requests hitting in the snoop filter with a single holder of the requested data.
system.membus.snoop_filter.hit_single_snoops            0                       # Number of snoops hitting in the snoop filter with a single holder of the requested data.
system.membus.snoop_filter.tot_requests        173704                       # Total number of requests made to the snoop filter.
system.membus.snoop_filter.tot_snoops               0                       # Total number of snoops made to the snoop filter.
system.switch_cpus.committedInsts                   0                       # Number of instructions committed
system.switch_cpus.committedOps                     0                       # Number of ops (including micro ops) committed
system.switch_cpus.dtb.rdAccesses                   0                       # TLB accesses on read requests
system.switch_cpus.dtb.rdMisses                     0                       # TLB misses on read requests
system.switch_cpus.dtb.wrAccesses                   0                       # TLB accesses on write requests
system.switch_cpus.dtb.wrMisses                     0                       # TLB misses on write requests
system.switch_cpus.idle_fraction                    0                       # Percentage of idle cycles
system.switch_cpus.itb.rdAccesses                   0                       # TLB accesses on read requests
system.switch_cpus.itb.rdMisses                     0                       # TLB misses on read requests
system.switch_cpus.itb.wrAccesses                   0                       # TLB accesses on write requests
system.switch_cpus.itb.wrMisses                     0                       # TLB misses on write requests
system.switch_cpus.not_idle_fraction                1                       # Percentage of non-idle cycles
system.switch_cpus.numCycles                        0                       # number of cpu cycles simulated
system.switch_cpus.numWorkItemsCompleted            0                       # number of work items this cpu completed
system.switch_cpus.numWorkItemsStarted              0                       # number of work items this cpu started
system.switch_cpus.num_busy_cycles                  0                       # Number of busy cycles
system.switch_cpus.num_conditional_control_insts            0                       # number of instructions that are conditional controls
system.switch_cpus.num_fp_alu_accesses              0                       # Number of float alu accesses
system.switch_cpus.num_fp_insts                     0                       # number of float instructions
system.switch_cpus.num_fp_register_reads            0                       # number of times the floating registers were read
system.switch_cpus.num_fp_register_writes            0                       # number of times the floating registers were written
system.switch_cpus.num_func_calls                   0                       # number of times a function call or return occured
system.switch_cpus.num_idle_cycles                  0                       # Number of idle cycles
system.switch_cpus.num_int_alu_accesses             0                       # Number of integer alu accesses
system.switch_cpus.num_int_insts                    0                       # number of integer instructions
system.switch_cpus.num_int_register_reads            0                       # number of times the integer registers were read
system.switch_cpus.num_int_register_writes            0                       # number of times the integer registers were written
system.switch_cpus.num_load_insts                   0                       # Number of load instructions
system.switch_cpus.num_mem_refs                     0                       # number of memory refs
system.switch_cpus.num_store_insts                  0                       # Number of store instructions
system.switch_cpus.num_vec_alu_accesses             0                       # Number of vector alu accesses
system.switch_cpus.num_vec_insts                    0                       # number of vector instructions
system.switch_cpus.num_vec_register_reads            0                       # number of times the vector registers were read
system.switch_cpus.num_vec_register_writes            0                       # number of times the vector registers were written
system.switch_cpus.op_class::No_OpClass             0                       # Class of executed instruction
system.switch_cpus.op_class::IntAlu                 0                       # Class of executed instruction
system.switch_cpus.op_class::IntMult                0                       # Class of executed instruction
system.switch_cpus.op_class::IntDiv                 0                       # Class of executed instruction
system.switch_cpus.op_class::FloatAdd               0                       # Class of executed instruction
system.switch_cpus.op_class::FloatCmp               0                       # Class of executed instruction
system.switch_cpus.op_class::FloatCvt               0                       # Class of executed instruction
system.switch_cpus.op_class::FloatMult              0                       # Class of executed instruction
system.switch_cpus.op_class::FloatMultAcc            0                       # Class of executed instruction
system.switch_cpus.op_class::FloatDiv               0                       # Class of executed instruction
system.switch_cpus.op_class::FloatMisc              0                       # Class of executed instruction
system.switch_cpus.op_class::FloatSqrt              0                       # Class of executed instruction
system.switch_cpus.op_class::SimdAdd                0                       # Class of executed instruction
system.switch_cpus.op_class::SimdAddAcc             0                       # Class of executed instruction
system.switch_cpus.op_class::SimdAlu                0                       # Class of executed instruction
system.switch_cpus.op_class::SimdCmp                0                       # Class of executed instruction
system.switch_cpus.op_class::SimdCvt                0                       # Class of executed instruction
system.switch_cpus.op_class::SimdMisc               0                       # Class of executed instruction
system.switch_cpus.op_class::SimdMult               0                       # Class of executed instruction
system.switch_cpus.op_class::SimdMultAcc            0                       # Class of executed instruction
system.switch_cpus.op_class::SimdShift              0                       # Class of executed instruction
system.switch_cpus.op_class::SimdShiftAcc            0                       # Class of executed instruction
system.switch_cpus.op_class::SimdDiv                0                       # Class of executed instruction
system.switch_cpus.op_class::SimdSqrt               0                       # Class of executed instruction
system.switch_cpus.op_class::SimdFloatAdd            0                       # Class of executed instruction
system.switch_cpus.op_class::SimdFloatAlu            0                       # Class of executed instruction
system.switch_cpus.op_class::SimdFloatCmp            0                       # Class of executed instruction
system.switch_cpus.op_class::SimdFloatCvt            0                       # Class of executed instruction
system.switch_cpus.op_class::SimdFloatDiv            0                       # Class of executed instruction
system.switch_cpus.op_class::SimdFloatMisc            0                       # Class of executed instruction
system.switch_cpus.op_class::SimdFloatMult            0                       # Class of executed instruction
system.switch_cpus.op_class::SimdFloatMultAcc            0                       # Class of executed instruction
system.switch_cpus.op_class::SimdFloatSqrt            0                       # Class of executed instruction
system.switch_cpus.op_class::SimdReduceAdd            0                       # Class of executed instruction
system.switch_cpus.op_class::SimdReduceAlu            0                       # Class of executed instruction
system.switch_cpus.op_class::SimdReduceCmp            0                       # Class of executed instruction
system.switch_cpus.op_class::SimdFloatReduceAdd            0                       # Class of executed instruction
system.switch_cpus.op_class::SimdFloatReduceCmp            0                       # Class of executed instruction
system.switch_cpus.op_class::SimdAes                0                       # Class of executed instruction
system.switch_cpus.op_class::SimdAesMix             0                       # Class of executed instruction
system.switch_cpus.op_class::SimdSha1Hash            0                       # Class of executed instruction
system.switch_cpus.op_class::SimdSha1Hash2            0                       # Class of executed instruction
system.switch_cpus.op_class::SimdSha256Hash            0                       # Class of executed instruction
system.switch_cpus.op_class::SimdSha256Hash2            0                       # Class of executed instruction
system.switch_cpus.op_class::SimdShaSigma2            0                       # Class of executed instruction
system.switch_cpus.op_class::SimdShaSigma3            0                       # Class of executed instruction
system.switch_cpus.op_class::SimdPredAlu            0                       # Class of executed instruction
system.switch_cpus.op_class::MemRead                0                       # Class of executed instruction
system.switch_cpus.op_class::MemWrite               0                       # Class of executed instruction
system.switch_cpus.op_class::FloatMemRead            0                       # Class of executed instruction
system.switch_cpus.op_class::FloatMemWrite            0                       # Class of executed instruction
system.switch_cpus.op_class::IprAccess              0                       # Class of executed instruction
system.switch_cpus.op_class::InstPrefetch            0                       # Class of executed instruction
system.switch_cpus.op_class::total                  0                       # Class of executed instruction
system.switch_cpus_1.branchPred.BTBCorrect            0                       # Number of correct BTB predictions (this stat may not work properly.
system.switch_cpus_1.branchPred.BTBHitPct          nan                       # BTB Hit Percentage
system.switch_cpus_1.branchPred.BTBHits             0                       # Number of BTB hits
system.switch_cpus_1.branchPred.BTBLookups            0                       # Number of BTB lookups
system.switch_cpus_1.branchPred.RASInCorrect          237                       # Number of incorrect RAS predictions.
system.switch_cpus_1.branchPred.condIncorrect      3555587                       # Number of conditional branches incorrect
system.switch_cpus_1.branchPred.condPredicted     62161182                       # Number of conditional branches predicted
system.switch_cpus_1.branchPred.indirectHits     22548563                       # Number of indirect target hits.
system.switch_cpus_1.branchPred.indirectLookups     29726404                       # Number of indirect predictor lookups.
system.switch_cpus_1.branchPred.indirectMisses      7177841                       # Number of indirect misses.
system.switch_cpus_1.branchPred.lookups      72040774                       # Number of BP lookups
system.switch_cpus_1.branchPred.usedRAS       4836380                       # Number of times the RAS was used to get a target.
system.switch_cpus_1.branchPredindirectMispredicted      2941985                       # Number of mispredicted indirect branches.
system.switch_cpus_1.cc_regfile_reads       286840860                       # number of cc regfile reads
system.switch_cpus_1.cc_regfile_writes      155735196                       # number of cc regfile writes
system.switch_cpus_1.commit.amos                    0                       # Number of atomic instructions committed
system.switch_cpus_1.commit.branchMispredicts      3556597                       # The number of times a branch was mispredicted
system.switch_cpus_1.commit.branches         53455029                       # Number of branches committed
system.switch_cpus_1.commit.bw_lim_events     30230290                       # number cycles where commit BW limit reached
system.switch_cpus_1.commit.commitNonSpecStalls          164                       # The number of times commit has been forced to stall to communicate backwards
system.switch_cpus_1.commit.commitSquashedInsts     99293982                       # The number of squashed insts skipped by commit
system.switch_cpus_1.commit.committedInsts    250000000                       # Number of instructions committed
system.switch_cpus_1.commit.committedOps    485475175                       # Number of ops (including micro ops) committed
system.switch_cpus_1.commit.committed_per_cycle::samples    169377789                       # Number of insts commited each cycle
system.switch_cpus_1.commit.committed_per_cycle::mean     2.866227                       # Number of insts commited each cycle
system.switch_cpus_1.commit.committed_per_cycle::stdev     2.948974                       # Number of insts commited each cycle
system.switch_cpus_1.commit.committed_per_cycle::underflows            0      0.00%      0.00% # Number of insts commited each cycle
system.switch_cpus_1.commit.committed_per_cycle::0     53571948     31.63%     31.63% # Number of insts commited each cycle
system.switch_cpus_1.commit.committed_per_cycle::1     23176037     13.68%     45.31% # Number of insts commited each cycle
system.switch_cpus_1.commit.committed_per_cycle::2     17040937     10.06%     55.37% # Number of insts commited each cycle
system.switch_cpus_1.commit.committed_per_cycle::3     21307519     12.58%     67.95% # Number of insts commited each cycle
system.switch_cpus_1.commit.committed_per_cycle::4      8322266      4.91%     72.87% # Number of insts commited each cycle
system.switch_cpus_1.commit.committed_per_cycle::5      7475275      4.41%     77.28% # Number of insts commited each cycle
system.switch_cpus_1.commit.committed_per_cycle::6      5987671      3.54%     80.81% # Number of insts commited each cycle
system.switch_cpus_1.commit.committed_per_cycle::7      2265846      1.34%     82.15% # Number of insts commited each cycle
system.switch_cpus_1.commit.committed_per_cycle::8     30230290     17.85%    100.00% # Number of insts commited each cycle
system.switch_cpus_1.commit.committed_per_cycle::overflows            0      0.00%    100.00% # Number of insts commited each cycle
system.switch_cpus_1.commit.committed_per_cycle::min_value            0                       # Number of insts commited each cycle
system.switch_cpus_1.commit.committed_per_cycle::max_value            8                       # Number of insts commited each cycle
system.switch_cpus_1.commit.committed_per_cycle::total    169377789                       # Number of insts commited each cycle
system.switch_cpus_1.commit.fp_insts          8240809                       # Number of committed floating point instructions.
system.switch_cpus_1.commit.function_calls      3371427                       # Number of function calls committed.
system.switch_cpus_1.commit.int_insts       478606548                       # Number of committed integer instructions.
system.switch_cpus_1.commit.loads            58771653                       # Number of loads committed
system.switch_cpus_1.commit.membars                 0                       # Number of memory barriers committed
system.switch_cpus_1.commit.op_class_0::No_OpClass      2274108      0.47%      0.47% # Class of committed instruction
system.switch_cpus_1.commit.op_class_0::IntAlu    374564349     77.15%     77.62% # Class of committed instruction
system.switch_cpus_1.commit.op_class_0::IntMult       385147      0.08%     77.70% # Class of committed instruction
system.switch_cpus_1.commit.op_class_0::IntDiv       694599      0.14%     77.85% # Class of committed instruction
system.switch_cpus_1.commit.op_class_0::FloatAdd       288539      0.06%     77.90% # Class of committed instruction
system.switch_cpus_1.commit.op_class_0::FloatCmp            0      0.00%     77.90% # Class of committed instruction
system.switch_cpus_1.commit.op_class_0::FloatCvt            0      0.00%     77.90% # Class of committed instruction
system.switch_cpus_1.commit.op_class_0::FloatMult            0      0.00%     77.90% # Class of committed instruction
system.switch_cpus_1.commit.op_class_0::FloatMultAcc            0      0.00%     77.90% # Class of committed instruction
system.switch_cpus_1.commit.op_class_0::FloatDiv            0      0.00%     77.90% # Class of committed instruction
system.switch_cpus_1.commit.op_class_0::FloatMisc            0      0.00%     77.90% # Class of committed instruction
system.switch_cpus_1.commit.op_class_0::FloatSqrt            0      0.00%     77.90% # Class of committed instruction
system.switch_cpus_1.commit.op_class_0::SimdAdd            0      0.00%     77.90% # Class of committed instruction
system.switch_cpus_1.commit.op_class_0::SimdAddAcc            0      0.00%     77.90% # Class of committed instruction
system.switch_cpus_1.commit.op_class_0::SimdAlu       144192      0.03%     77.93% # Class of committed instruction
system.switch_cpus_1.commit.op_class_0::SimdCmp            0      0.00%     77.93% # Class of committed instruction
system.switch_cpus_1.commit.op_class_0::SimdCvt      1832450      0.38%     78.31% # Class of committed instruction
system.switch_cpus_1.commit.op_class_0::SimdMisc      3852223      0.79%     79.11% # Class of committed instruction
system.switch_cpus_1.commit.op_class_0::SimdMult            0      0.00%     79.11% # Class of committed instruction
system.switch_cpus_1.commit.op_class_0::SimdMultAcc            0      0.00%     79.11% # Class of committed instruction
system.switch_cpus_1.commit.op_class_0::SimdShift            0      0.00%     79.11% # Class of committed instruction
system.switch_cpus_1.commit.op_class_0::SimdShiftAcc            0      0.00%     79.11% # Class of committed instruction
system.switch_cpus_1.commit.op_class_0::SimdDiv            0      0.00%     79.11% # Class of committed instruction
system.switch_cpus_1.commit.op_class_0::SimdSqrt            0      0.00%     79.11% # Class of committed instruction
system.switch_cpus_1.commit.op_class_0::SimdFloatAdd            0      0.00%     79.11% # Class of committed instruction
system.switch_cpus_1.commit.op_class_0::SimdFloatAlu            0      0.00%     79.11% # Class of committed instruction
system.switch_cpus_1.commit.op_class_0::SimdFloatCmp            0      0.00%     79.11% # Class of committed instruction
system.switch_cpus_1.commit.op_class_0::SimdFloatCvt            0      0.00%     79.11% # Class of committed instruction
system.switch_cpus_1.commit.op_class_0::SimdFloatDiv            0      0.00%     79.11% # Class of committed instruction
system.switch_cpus_1.commit.op_class_0::SimdFloatMisc            0      0.00%     79.11% # Class of committed instruction
system.switch_cpus_1.commit.op_class_0::SimdFloatMult            0      0.00%     79.11% # Class of committed instruction
system.switch_cpus_1.commit.op_class_0::SimdFloatMultAcc            0      0.00%     79.11% # Class of committed instruction
system.switch_cpus_1.commit.op_class_0::SimdFloatSqrt            0      0.00%     79.11% # Class of committed instruction
system.switch_cpus_1.commit.op_class_0::SimdReduceAdd            0      0.00%     79.11% # Class of committed instruction
system.switch_cpus_1.commit.op_class_0::SimdReduceAlu            0      0.00%     79.11% # Class of committed instruction
system.switch_cpus_1.commit.op_class_0::SimdReduceCmp            0      0.00%     79.11% # Class of committed instruction
system.switch_cpus_1.commit.op_class_0::SimdFloatReduceAdd            0      0.00%     79.11% # Class of committed instruction
system.switch_cpus_1.commit.op_class_0::SimdFloatReduceCmp            0      0.00%     79.11% # Class of committed instruction
system.switch_cpus_1.commit.op_class_0::SimdAes            0      0.00%     79.11% # Class of committed instruction
system.switch_cpus_1.commit.op_class_0::SimdAesMix            0      0.00%     79.11% # Class of committed instruction
system.switch_cpus_1.commit.op_class_0::SimdSha1Hash            0      0.00%     79.11% # Class of committed instruction
system.switch_cpus_1.commit.op_class_0::SimdSha1Hash2            0      0.00%     79.11% # Class of committed instruction
system.switch_cpus_1.commit.op_class_0::SimdSha256Hash            0      0.00%     79.11% # Class of committed instruction
system.switch_cpus_1.commit.op_class_0::SimdSha256Hash2            0      0.00%     79.11% # Class of committed instruction
system.switch_cpus_1.commit.op_class_0::SimdShaSigma2            0      0.00%     79.11% # Class of committed instruction
system.switch_cpus_1.commit.op_class_0::SimdShaSigma3            0      0.00%     79.11% # Class of committed instruction
system.switch_cpus_1.commit.op_class_0::SimdPredAlu            0      0.00%     79.11% # Class of committed instruction
system.switch_cpus_1.commit.op_class_0::MemRead     56939203     11.73%     90.83% # Class of committed instruction
system.switch_cpus_1.commit.op_class_0::MemWrite     42665499      8.79%     99.62% # Class of committed instruction
system.switch_cpus_1.commit.op_class_0::FloatMemRead      1832450      0.38%    100.00% # Class of committed instruction
system.switch_cpus_1.commit.op_class_0::FloatMemWrite         2416      0.00%    100.00% # Class of committed instruction
system.switch_cpus_1.commit.op_class_0::IprAccess            0      0.00%    100.00% # Class of committed instruction
system.switch_cpus_1.commit.op_class_0::InstPrefetch            0      0.00%    100.00% # Class of committed instruction
system.switch_cpus_1.commit.op_class_0::total    485475175                       # Class of committed instruction
system.switch_cpus_1.commit.refs            101439568                       # Number of memory references committed
system.switch_cpus_1.commit.swp_count               0                       # Number of s/w prefetches committed
system.switch_cpus_1.commit.vec_insts               0                       # Number of committed Vector instructions.
system.switch_cpus_1.committedInsts         250000000                       # Number of Instructions Simulated
system.switch_cpus_1.committedOps           485475175                       # Number of Ops (including micro ops) Simulated
system.switch_cpus_1.cpi                     0.737664                       # CPI: Cycles Per Instruction
system.switch_cpus_1.cpi_total               0.737664                       # CPI: Total CPI of All Threads
system.switch_cpus_1.decode.BlockedCycles     30221708                       # Number of cycles decode is blocked
system.switch_cpus_1.decode.DecodedInsts    634777812                       # Number of instructions handled by decode
system.switch_cpus_1.decode.IdleCycles       51062457                       # Number of cycles decode is idle
system.switch_cpus_1.decode.RunCycles        94778626                       # Number of cycles decode is running
system.switch_cpus_1.decode.SquashCycles      3561984                       # Number of cycles decode is squashing
system.switch_cpus_1.decode.UnblockCycles      4412706                       # Number of cycles decode is unblocking
system.switch_cpus_1.dtb.rdAccesses          66474522                       # TLB accesses on read requests
system.switch_cpus_1.dtb.rdMisses              345704                       # TLB misses on read requests
system.switch_cpus_1.dtb.wrAccesses          45911200                       # TLB accesses on write requests
system.switch_cpus_1.dtb.wrMisses               26448                       # TLB misses on write requests
system.switch_cpus_1.fetch.Branches          72040774                       # Number of branches that fetch encountered
system.switch_cpus_1.fetch.CacheLines        48975174                       # Number of cache lines fetched
system.switch_cpus_1.fetch.Cycles           125325992                       # Number of cycles fetch has run and was not squashing or blocked
system.switch_cpus_1.fetch.IcacheSquashes       915079                       # Number of outstanding Icache misses that were squashed
system.switch_cpus_1.fetch.IcacheWaitRetryStallCycles          245                       # Number of stall cycles due to full MSHR
system.switch_cpus_1.fetch.Insts            337751654                       # Number of instructions fetch has processed
system.switch_cpus_1.fetch.MiscStallCycles         1421                       # Number of cycles fetch has spent waiting on interrupts, or bad addresses, or out of MSHRs
system.switch_cpus_1.fetch.PendingTrapStallCycles         7605                       # Number of stall cycles due to pending traps
system.switch_cpus_1.fetch.SquashCycles       7123968                       # Number of cycles fetch has spent squashing
system.switch_cpus_1.fetch.branchRate        0.390643                       # Number of branch fetches per cycle
system.switch_cpus_1.fetch.icacheStallCycles     55140241                       # Number of cycles fetch is stalled on an Icache miss
system.switch_cpus_1.fetch.predictedBranches     27384943                       # Number of branches that fetch has predicted taken
system.switch_cpus_1.fetch.rate              1.831467                       # Number of inst fetches per cycle
system.switch_cpus_1.fetch.rateDist::samples    184037488                       # Number of instructions fetched each cycle (Total)
system.switch_cpus_1.fetch.rateDist::mean     3.557802                       # Number of instructions fetched each cycle (Total)
system.switch_cpus_1.fetch.rateDist::stdev     3.578854                       # Number of instructions fetched each cycle (Total)
system.switch_cpus_1.fetch.rateDist::underflows            0      0.00%      0.00% # Number of instructions fetched each cycle (Total)
system.switch_cpus_1.fetch.rateDist::0       78289324     42.54%     42.54% # Number of instructions fetched each cycle (Total)
system.switch_cpus_1.fetch.rateDist::1        6587429      3.58%     46.12% # Number of instructions fetched each cycle (Total)
system.switch_cpus_1.fetch.rateDist::2        8072512      4.39%     50.51% # Number of instructions fetched each cycle (Total)
system.switch_cpus_1.fetch.rateDist::3        6737825      3.66%     54.17% # Number of instructions fetched each cycle (Total)
system.switch_cpus_1.fetch.rateDist::4        6474139      3.52%     57.68% # Number of instructions fetched each cycle (Total)
system.switch_cpus_1.fetch.rateDist::5        7467574      4.06%     61.74% # Number of instructions fetched each cycle (Total)
system.switch_cpus_1.fetch.rateDist::6        5495539      2.99%     64.73% # Number of instructions fetched each cycle (Total)
system.switch_cpus_1.fetch.rateDist::7        3689863      2.00%     66.73% # Number of instructions fetched each cycle (Total)
system.switch_cpus_1.fetch.rateDist::8       61223283     33.27%    100.00% # Number of instructions fetched each cycle (Total)
system.switch_cpus_1.fetch.rateDist::overflows            0      0.00%    100.00% # Number of instructions fetched each cycle (Total)
system.switch_cpus_1.fetch.rateDist::min_value            0                       # Number of instructions fetched each cycle (Total)
system.switch_cpus_1.fetch.rateDist::max_value            8                       # Number of instructions fetched each cycle (Total)
system.switch_cpus_1.fetch.rateDist::total    184037488                       # Number of instructions fetched each cycle (Total)
system.switch_cpus_1.fp_regfile_reads        14805725                       # number of floating regfile reads
system.switch_cpus_1.fp_regfile_writes        7891916                       # number of floating regfile writes
system.switch_cpus_1.idleCycles                378413                       # Total number of cycles that the CPU has spent unscheduled due to idling
system.switch_cpus_1.iew.branchMispredicts      4666664                       # Number of branch mispredicts detected at execute
system.switch_cpus_1.iew.exec_branches       57637215                       # Number of branches executed
system.switch_cpus_1.iew.exec_nop                   0                       # number of nop insts executed
system.switch_cpus_1.iew.exec_rate           2.938518                       # Inst execution rate
system.switch_cpus_1.iew.exec_refs          112309499                       # number of memory reference insts executed
system.switch_cpus_1.iew.exec_stores         45886618                       # Number of stores executed
system.switch_cpus_1.iew.exec_swp                   0                       # number of swp insts executed
system.switch_cpus_1.iew.iewBlockCycles      11680481                       # Number of cycles IEW is blocking
system.switch_cpus_1.iew.iewDispLoadInsts     72339968                       # Number of dispatched load instructions
system.switch_cpus_1.iew.iewDispNonSpecInsts        49074                       # Number of dispatched non-speculative instructions
system.switch_cpus_1.iew.iewDispSquashedInsts        60460                       # Number of squashed instructions skipped by dispatch
system.switch_cpus_1.iew.iewDispStoreInsts     50987235                       # Number of dispatched store instructions
system.switch_cpus_1.iew.iewDispatchedInsts    584846020                       # Number of instructions dispatched to IQ
system.switch_cpus_1.iew.iewExecLoadInsts     66422881                       # Number of load instructions executed
system.switch_cpus_1.iew.iewExecSquashedInsts      9305743                       # Number of squashed instructions skipped in execute
system.switch_cpus_1.iew.iewExecutedInsts    541909456                       # Number of executed instructions
system.switch_cpus_1.iew.iewIQFullEvents        14867                       # Number of times the IQ has become full, causing a stall
system.switch_cpus_1.iew.iewIdleCycles              0                       # Number of cycles IEW is idle
system.switch_cpus_1.iew.iewLSQFullEvents       599566                       # Number of times the LSQ has become full, causing a stall
system.switch_cpus_1.iew.iewSquashCycles      3561984                       # Number of cycles IEW is squashing
system.switch_cpus_1.iew.iewUnblockCycles       631229                       # Number of cycles IEW is unblocking
system.switch_cpus_1.iew.lsq.thread0.blockedLoads            0                       # Number of blocked loads due to partial load-store forwarding
system.switch_cpus_1.iew.lsq.thread0.cacheBlocked           15                       # Number of times an access to memory failed due to the cache being blocked
system.switch_cpus_1.iew.lsq.thread0.forwLoads      8136505                       # Number of loads that had data forwarded from stores
system.switch_cpus_1.iew.lsq.thread0.ignoredResponses       137678                       # Number of memory responses ignored because the instruction is squashed
system.switch_cpus_1.iew.lsq.thread0.invAddrLoads            0                       # Number of loads ignored due to an invalid address
system.switch_cpus_1.iew.lsq.thread0.invAddrSwpfs            0                       # Number of software prefetches ignored due to an invalid address
system.switch_cpus_1.iew.lsq.thread0.memOrderViolation         6539                       # Number of memory ordering violations
system.switch_cpus_1.iew.lsq.thread0.rescheduledLoads        66367                       # Number of loads that were rescheduled
system.switch_cpus_1.iew.lsq.thread0.squashedLoads     13568306                       # Number of loads squashed
system.switch_cpus_1.iew.lsq.thread0.squashedStores      8319319                       # Number of stores squashed
system.switch_cpus_1.iew.memOrderViolationEvents         6539                       # Number of memory order violations
system.switch_cpus_1.iew.predictedNotTakenIncorrect      4502434                       # Number of branches that were predicted not taken incorrectly
system.switch_cpus_1.iew.predictedTakenIncorrect       164230                       # Number of branches that were predicted taken incorrectly
system.switch_cpus_1.iew.wb_consumers       611216294                       # num instructions consuming a value
system.switch_cpus_1.iew.wb_count           538376050                       # cumulative count of insts written-back
system.switch_cpus_1.iew.wb_fanout           0.633331                       # average fanout of values written-back
system.switch_cpus_1.iew.wb_producers       387102131                       # num instructions producing a value
system.switch_cpus_1.iew.wb_rate             2.919358                       # insts written-back per cycle
system.switch_cpus_1.iew.wb_sent            539975991                       # cumulative count of insts sent to commit
system.switch_cpus_1.int_regfile_reads      802599051                       # number of integer regfile reads
system.switch_cpus_1.int_regfile_writes     426778622                       # number of integer regfile writes
system.switch_cpus_1.ipc                     1.355631                       # IPC: Instructions Per Cycle
system.switch_cpus_1.ipc_total               1.355631                       # IPC: Total IPC of All Threads
system.switch_cpus_1.iq.FU_type_0::No_OpClass      3664293      0.66%      0.66% # Type of FU issued
system.switch_cpus_1.iq.FU_type_0::IntAlu    423375187     76.81%     77.47% # Type of FU issued
system.switch_cpus_1.iq.FU_type_0::IntMult       415711      0.08%     77.55% # Type of FU issued
system.switch_cpus_1.iq.FU_type_0::IntDiv       721583      0.13%     77.68% # Type of FU issued
system.switch_cpus_1.iq.FU_type_0::FloatAdd       288547      0.05%     77.73% # Type of FU issued
system.switch_cpus_1.iq.FU_type_0::FloatCmp            0      0.00%     77.73% # Type of FU issued
system.switch_cpus_1.iq.FU_type_0::FloatCvt            0      0.00%     77.73% # Type of FU issued
system.switch_cpus_1.iq.FU_type_0::FloatMult            0      0.00%     77.73% # Type of FU issued
system.switch_cpus_1.iq.FU_type_0::FloatMultAcc            0      0.00%     77.73% # Type of FU issued
system.switch_cpus_1.iq.FU_type_0::FloatDiv            0      0.00%     77.73% # Type of FU issued
system.switch_cpus_1.iq.FU_type_0::FloatMisc            0      0.00%     77.73% # Type of FU issued
system.switch_cpus_1.iq.FU_type_0::FloatSqrt            0      0.00%     77.73% # Type of FU issued
system.switch_cpus_1.iq.FU_type_0::SimdAdd            0      0.00%     77.73% # Type of FU issued
system.switch_cpus_1.iq.FU_type_0::SimdAddAcc            0      0.00%     77.73% # Type of FU issued
system.switch_cpus_1.iq.FU_type_0::SimdAlu       146738      0.03%     77.76% # Type of FU issued
system.switch_cpus_1.iq.FU_type_0::SimdCmp           54      0.00%     77.76% # Type of FU issued
system.switch_cpus_1.iq.FU_type_0::SimdCvt      2477340      0.45%     78.21% # Type of FU issued
system.switch_cpus_1.iq.FU_type_0::SimdMisc      4358506      0.79%     79.00% # Type of FU issued
system.switch_cpus_1.iq.FU_type_0::SimdMult            0      0.00%     79.00% # Type of FU issued
system.switch_cpus_1.iq.FU_type_0::SimdMultAcc            0      0.00%     79.00% # Type of FU issued
system.switch_cpus_1.iq.FU_type_0::SimdShift            0      0.00%     79.00% # Type of FU issued
system.switch_cpus_1.iq.FU_type_0::SimdShiftAcc            0      0.00%     79.00% # Type of FU issued
system.switch_cpus_1.iq.FU_type_0::SimdDiv            0      0.00%     79.00% # Type of FU issued
system.switch_cpus_1.iq.FU_type_0::SimdSqrt            0      0.00%     79.00% # Type of FU issued
system.switch_cpus_1.iq.FU_type_0::SimdFloatAdd            0      0.00%     79.00% # Type of FU issued
system.switch_cpus_1.iq.FU_type_0::SimdFloatAlu            0      0.00%     79.00% # Type of FU issued
system.switch_cpus_1.iq.FU_type_0::SimdFloatCmp            0      0.00%     79.00% # Type of FU issued
system.switch_cpus_1.iq.FU_type_0::SimdFloatCvt            0      0.00%     79.00% # Type of FU issued
system.switch_cpus_1.iq.FU_type_0::SimdFloatDiv            0      0.00%     79.00% # Type of FU issued
system.switch_cpus_1.iq.FU_type_0::SimdFloatMisc            0      0.00%     79.00% # Type of FU issued
system.switch_cpus_1.iq.FU_type_0::SimdFloatMult            0      0.00%     79.00% # Type of FU issued
system.switch_cpus_1.iq.FU_type_0::SimdFloatMultAcc            0      0.00%     79.00% # Type of FU issued
system.switch_cpus_1.iq.FU_type_0::SimdFloatSqrt            0      0.00%     79.00% # Type of FU issued
system.switch_cpus_1.iq.FU_type_0::SimdReduceAdd            0      0.00%     79.00% # Type of FU issued
system.switch_cpus_1.iq.FU_type_0::SimdReduceAlu            0      0.00%     79.00% # Type of FU issued
system.switch_cpus_1.iq.FU_type_0::SimdReduceCmp            0      0.00%     79.00% # Type of FU issued
system.switch_cpus_1.iq.FU_type_0::SimdFloatReduceAdd            0      0.00%     79.00% # Type of FU issued
system.switch_cpus_1.iq.FU_type_0::SimdFloatReduceCmp            0      0.00%     79.00% # Type of FU issued
system.switch_cpus_1.iq.FU_type_0::SimdAes            0      0.00%     79.00% # Type of FU issued
system.switch_cpus_1.iq.FU_type_0::SimdAesMix            0      0.00%     79.00% # Type of FU issued
system.switch_cpus_1.iq.FU_type_0::SimdSha1Hash            0      0.00%     79.00% # Type of FU issued
system.switch_cpus_1.iq.FU_type_0::SimdSha1Hash2            0      0.00%     79.00% # Type of FU issued
system.switch_cpus_1.iq.FU_type_0::SimdSha256Hash            0      0.00%     79.00% # Type of FU issued
system.switch_cpus_1.iq.FU_type_0::SimdSha256Hash2            0      0.00%     79.00% # Type of FU issued
system.switch_cpus_1.iq.FU_type_0::SimdShaSigma2            0      0.00%     79.00% # Type of FU issued
system.switch_cpus_1.iq.FU_type_0::SimdShaSigma3            0      0.00%     79.00% # Type of FU issued
system.switch_cpus_1.iq.FU_type_0::SimdPredAlu            0      0.00%     79.00% # Type of FU issued
system.switch_cpus_1.iq.FU_type_0::MemRead     65094687     11.81%     90.81% # Type of FU issued
system.switch_cpus_1.iq.FU_type_0::MemWrite     47051278      8.54%     99.34% # Type of FU issued
system.switch_cpus_1.iq.FU_type_0::FloatMemRead      2997372      0.54%     99.89% # Type of FU issued
system.switch_cpus_1.iq.FU_type_0::FloatMemWrite       623906      0.11%    100.00% # Type of FU issued
system.switch_cpus_1.iq.FU_type_0::IprAccess            0      0.00%    100.00% # Type of FU issued
system.switch_cpus_1.iq.FU_type_0::InstPrefetch            0      0.00%    100.00% # Type of FU issued
system.switch_cpus_1.iq.FU_type_0::total    551215202                       # Type of FU issued
system.switch_cpus_1.iq.fp_alu_accesses      11421750                       # Number of floating point alu accesses
system.switch_cpus_1.iq.fp_inst_queue_reads     22738323                       # Number of floating instruction queue reads
system.switch_cpus_1.iq.fp_inst_queue_wakeup_accesses     10470316                       # Number of floating instruction queue wakeup accesses
system.switch_cpus_1.iq.fp_inst_queue_writes     16959697                       # Number of floating instruction queue writes
system.switch_cpus_1.iq.fu_busy_cnt           7282644                       # FU busy when requested
system.switch_cpus_1.iq.fu_busy_rate         0.013212                       # FU busy rate (busy events/executed inst)
system.switch_cpus_1.iq.fu_full::No_OpClass            0      0.00%      0.00% # attempts to use FU when none available
system.switch_cpus_1.iq.fu_full::IntAlu       6506549     89.34%     89.34% # attempts to use FU when none available
system.switch_cpus_1.iq.fu_full::IntMult            0      0.00%     89.34% # attempts to use FU when none available
system.switch_cpus_1.iq.fu_full::IntDiv             0      0.00%     89.34% # attempts to use FU when none available
system.switch_cpus_1.iq.fu_full::FloatAdd            0      0.00%     89.34% # attempts to use FU when none available
system.switch_cpus_1.iq.fu_full::FloatCmp            0      0.00%     89.34% # attempts to use FU when none available
system.switch_cpus_1.iq.fu_full::FloatCvt            0      0.00%     89.34% # attempts to use FU when none available
system.switch_cpus_1.iq.fu_full::FloatMult            0      0.00%     89.34% # attempts to use FU when none available
system.switch_cpus_1.iq.fu_full::FloatMultAcc            0      0.00%     89.34% # attempts to use FU when none available
system.switch_cpus_1.iq.fu_full::FloatDiv            0      0.00%     89.34% # attempts to use FU when none available
system.switch_cpus_1.iq.fu_full::FloatMisc            0      0.00%     89.34% # attempts to use FU when none available
system.switch_cpus_1.iq.fu_full::FloatSqrt            0      0.00%     89.34% # attempts to use FU when none available
system.switch_cpus_1.iq.fu_full::SimdAdd            0      0.00%     89.34% # attempts to use FU when none available
system.switch_cpus_1.iq.fu_full::SimdAddAcc            0      0.00%     89.34% # attempts to use FU when none available
system.switch_cpus_1.iq.fu_full::SimdAlu          170      0.00%     89.35% # attempts to use FU when none available
system.switch_cpus_1.iq.fu_full::SimdCmp            0      0.00%     89.35% # attempts to use FU when none available
system.switch_cpus_1.iq.fu_full::SimdCvt        45537      0.63%     89.97% # attempts to use FU when none available
system.switch_cpus_1.iq.fu_full::SimdMisc            0      0.00%     89.97% # attempts to use FU when none available
system.switch_cpus_1.iq.fu_full::SimdMult            0      0.00%     89.97% # attempts to use FU when none available
system.switch_cpus_1.iq.fu_full::SimdMultAcc            0      0.00%     89.97% # attempts to use FU when none available
system.switch_cpus_1.iq.fu_full::SimdShift            0      0.00%     89.97% # attempts to use FU when none available
system.switch_cpus_1.iq.fu_full::SimdShiftAcc            0      0.00%     89.97% # attempts to use FU when none available
system.switch_cpus_1.iq.fu_full::SimdDiv            0      0.00%     89.97% # attempts to use FU when none available
system.switch_cpus_1.iq.fu_full::SimdSqrt            0      0.00%     89.97% # attempts to use FU when none available
system.switch_cpus_1.iq.fu_full::SimdFloatAdd            0      0.00%     89.97% # attempts to use FU when none available
system.switch_cpus_1.iq.fu_full::SimdFloatAlu            0      0.00%     89.97% # attempts to use FU when none available
system.switch_cpus_1.iq.fu_full::SimdFloatCmp            0      0.00%     89.97% # attempts to use FU when none available
system.switch_cpus_1.iq.fu_full::SimdFloatCvt            0      0.00%     89.97% # attempts to use FU when none available
system.switch_cpus_1.iq.fu_full::SimdFloatDiv            0      0.00%     89.97% # attempts to use FU when none available
system.switch_cpus_1.iq.fu_full::SimdFloatMisc            0      0.00%     89.97% # attempts to use FU when none available
system.switch_cpus_1.iq.fu_full::SimdFloatMult            0      0.00%     89.97% # attempts to use FU when none available
system.switch_cpus_1.iq.fu_full::SimdFloatMultAcc            0      0.00%     89.97% # attempts to use FU when none available
system.switch_cpus_1.iq.fu_full::SimdFloatSqrt            0      0.00%     89.97% # attempts to use FU when none available
system.switch_cpus_1.iq.fu_full::SimdReduceAdd            0      0.00%     89.97% # attempts to use FU when none available
system.switch_cpus_1.iq.fu_full::SimdReduceAlu            0      0.00%     89.97% # attempts to use FU when none available
system.switch_cpus_1.iq.fu_full::SimdReduceCmp            0      0.00%     89.97% # attempts to use FU when none available
system.switch_cpus_1.iq.fu_full::SimdFloatReduceAdd            0      0.00%     89.97% # attempts to use FU when none available
system.switch_cpus_1.iq.fu_full::SimdFloatReduceCmp            0      0.00%     89.97% # attempts to use FU when none available
system.switch_cpus_1.iq.fu_full::SimdAes            0      0.00%     89.97% # attempts to use FU when none available
system.switch_cpus_1.iq.fu_full::SimdAesMix            0      0.00%     89.97% # attempts to use FU when none available
system.switch_cpus_1.iq.fu_full::SimdSha1Hash            0      0.00%     89.97% # attempts to use FU when none available
system.switch_cpus_1.iq.fu_full::SimdSha1Hash2            0      0.00%     89.97% # attempts to use FU when none available
system.switch_cpus_1.iq.fu_full::SimdSha256Hash            0      0.00%     89.97% # attempts to use FU when none available
system.switch_cpus_1.iq.fu_full::SimdSha256Hash2            0      0.00%     89.97% # attempts to use FU when none available
system.switch_cpus_1.iq.fu_full::SimdShaSigma2            0      0.00%     89.97% # attempts to use FU when none available
system.switch_cpus_1.iq.fu_full::SimdShaSigma3            0      0.00%     89.97% # attempts to use FU when none available
system.switch_cpus_1.iq.fu_full::SimdPredAlu            0      0.00%     89.97% # attempts to use FU when none available
system.switch_cpus_1.iq.fu_full::MemRead       341101      4.68%     94.65% # attempts to use FU when none available
system.switch_cpus_1.iq.fu_full::MemWrite       194253      2.67%     97.32% # attempts to use FU when none available
system.switch_cpus_1.iq.fu_full::FloatMemRead         8926      0.12%     97.44% # attempts to use FU when none available
system.switch_cpus_1.iq.fu_full::FloatMemWrite       186108      2.56%    100.00% # attempts to use FU when none available
system.switch_cpus_1.iq.fu_full::IprAccess            0      0.00%    100.00% # attempts to use FU when none available
system.switch_cpus_1.iq.fu_full::InstPrefetch            0      0.00%    100.00% # attempts to use FU when none available
system.switch_cpus_1.iq.int_alu_accesses    543411803                       # Number of integer alu accesses
system.switch_cpus_1.iq.int_inst_queue_reads   1271839273                       # Number of integer instruction queue reads
system.switch_cpus_1.iq.int_inst_queue_wakeup_accesses    527905734                       # Number of integer instruction queue wakeup accesses
system.switch_cpus_1.iq.int_inst_queue_writes    667261437                       # Number of integer instruction queue writes
system.switch_cpus_1.iq.iqInstsAdded        584695707                       # Number of instructions added to the IQ (excludes non-spec)
system.switch_cpus_1.iq.iqInstsIssued       551215202                       # Number of instructions issued
system.switch_cpus_1.iq.iqNonSpecInstsAdded       150313                       # Number of non-speculative instructions added to the IQ
system.switch_cpus_1.iq.iqSquashedInstsExamined     99370740                       # Number of squashed instructions iterated over during squash; mainly for profiling
system.switch_cpus_1.iq.iqSquashedInstsIssued       827063                       # Number of squashed instructions issued
system.switch_cpus_1.iq.iqSquashedNonSpecRemoved       150149                       # Number of squashed non-spec instructions that were removed
system.switch_cpus_1.iq.iqSquashedOperandsExamined    143578539                       # Number of squashed operands that are examined and possibly removed from graph
system.switch_cpus_1.iq.issued_per_cycle::samples    184037488                       # Number of insts issued each cycle
system.switch_cpus_1.iq.issued_per_cycle::mean     2.995125                       # Number of insts issued each cycle
system.switch_cpus_1.iq.issued_per_cycle::stdev     2.526729                       # Number of insts issued each cycle
system.switch_cpus_1.iq.issued_per_cycle::underflows            0      0.00%      0.00% # Number of insts issued each cycle
system.switch_cpus_1.iq.issued_per_cycle::0     49943952     27.14%     27.14% # Number of insts issued each cycle
system.switch_cpus_1.iq.issued_per_cycle::1     15885858      8.63%     35.77% # Number of insts issued each cycle
system.switch_cpus_1.iq.issued_per_cycle::2     20808693     11.31%     47.08% # Number of insts issued each cycle
system.switch_cpus_1.iq.issued_per_cycle::3     18570490     10.09%     57.17% # Number of insts issued each cycle
system.switch_cpus_1.iq.issued_per_cycle::4     21057747     11.44%     68.61% # Number of insts issued each cycle
system.switch_cpus_1.iq.issued_per_cycle::5     18604364     10.11%     78.72% # Number of insts issued each cycle
system.switch_cpus_1.iq.issued_per_cycle::6     19866766     10.79%     89.51% # Number of insts issued each cycle
system.switch_cpus_1.iq.issued_per_cycle::7     12849860      6.98%     96.50% # Number of insts issued each cycle
system.switch_cpus_1.iq.issued_per_cycle::8      6449758      3.50%    100.00% # Number of insts issued each cycle
system.switch_cpus_1.iq.issued_per_cycle::overflows            0      0.00%    100.00% # Number of insts issued each cycle
system.switch_cpus_1.iq.issued_per_cycle::min_value            0                       # Number of insts issued each cycle
system.switch_cpus_1.iq.issued_per_cycle::max_value            8                       # Number of insts issued each cycle
system.switch_cpus_1.iq.issued_per_cycle::total    184037488                       # Number of insts issued each cycle
system.switch_cpus_1.iq.rate                 2.988979                       # Inst issue rate
system.switch_cpus_1.iq.vec_alu_accesses            0                       # Number of vector alu accesses
system.switch_cpus_1.iq.vec_inst_queue_reads            0                       # Number of vector instruction queue reads
system.switch_cpus_1.iq.vec_inst_queue_wakeup_accesses            0                       # Number of vector instruction queue wakeup accesses
system.switch_cpus_1.iq.vec_inst_queue_writes            0                       # Number of vector instruction queue writes
system.switch_cpus_1.itb.rdAccesses                 0                       # TLB accesses on read requests
system.switch_cpus_1.itb.rdMisses                   0                       # TLB misses on read requests
system.switch_cpus_1.itb.wrAccesses          48976328                       # TLB accesses on write requests
system.switch_cpus_1.itb.wrMisses                1195                       # TLB misses on write requests
system.switch_cpus_1.memDep0.conflictingLoads      1848891                       # Number of conflicting loads.
system.switch_cpus_1.memDep0.conflictingStores       700096                       # Number of conflicting stores.
system.switch_cpus_1.memDep0.insertedLoads     72339968                       # Number of loads inserted to the mem dependence unit.
system.switch_cpus_1.memDep0.insertedStores     50987235                       # Number of stores inserted to the mem dependence unit.
system.switch_cpus_1.misc_regfile_reads     230461863                       # number of misc regfile reads
system.switch_cpus_1.numCycles              184415901                       # number of cpu cycles simulated
system.switch_cpus_1.numWorkItemsCompleted            0                       # number of work items this cpu completed
system.switch_cpus_1.numWorkItemsStarted            0                       # number of work items this cpu started
system.switch_cpus_1.rename.BlockCycles      13520991                       # Number of cycles rename is blocking
system.switch_cpus_1.rename.CommittedMaps    533112573                       # Number of HB maps that are committed
system.switch_cpus_1.rename.IQFullEvents       637747                       # Number of times rename has blocked due to IQ full
system.switch_cpus_1.rename.IdleCycles       54069536                       # Number of cycles rename is idle
system.switch_cpus_1.rename.LQFullEvents      9086274                       # Number of times rename has blocked due to LQ full
system.switch_cpus_1.rename.ROBFullEvents        36154                       # Number of times rename has blocked due to ROB full
system.switch_cpus_1.rename.RenameLookups   1553803755                       # Number of register rename lookups that rename has made
system.switch_cpus_1.rename.RenamedInsts    617838544                       # Number of instructions processed by rename
system.switch_cpus_1.rename.RenamedOperands    672723569                       # Number of destination operands rename has renamed
system.switch_cpus_1.rename.RunCycles        95898933                       # Number of cycles rename is running
system.switch_cpus_1.rename.SQFullEvents      6703434                       # Number of times rename has blocked due to SQ full
system.switch_cpus_1.rename.SquashCycles      3561984                       # Number of cycles rename is squashing
system.switch_cpus_1.rename.UnblockCycles     16983469                       # Number of cycles rename is unblocking
system.switch_cpus_1.rename.UndoneMaps      139610823                       # Number of HB maps that are undone due to squashing
system.switch_cpus_1.rename.fp_rename_lookups     17916664                       # Number of floating rename lookups
system.switch_cpus_1.rename.int_rename_lookups    935709541                       # Number of integer rename lookups
system.switch_cpus_1.rename.serializeStallCycles         2568                       # count of cycles rename stalled for serializing inst
system.switch_cpus_1.rename.serializingInsts          174                       # count of serializing insts renamed
system.switch_cpus_1.rename.skidInsts         9899657                       # count of insts added to the skid buffer
system.switch_cpus_1.rename.tempSerializingInsts          174                       # count of temporary serializing insts renamed
system.switch_cpus_1.rob.rob_reads          723896909                       # The number of ROB reads
system.switch_cpus_1.rob.rob_writes        1184379353                       # The number of ROB writes
system.switch_cpus_1.timesIdled                 92727                       # Number of times that the entire CPU went into an idle state and unscheduled itself
system.tol2bus.snoop_filter.hit_multi_requests            0                       # Number of requests hitting in the snoop filter with multiple (>1) holders of the requested data.
system.tol2bus.snoop_filter.hit_multi_snoops            0                       # Number of snoops hitting in the snoop filter with multiple (>1) holders of the requested data.
system.tol2bus.snoop_filter.hit_single_requests       349354                       # Number of requests hitting in the snoop filter with a single holder of the requested data.
system.tol2bus.snoop_filter.hit_single_snoops         5058                       # Number of snoops hitting in the snoop filter with a single holder of the requested data.
system.tol2bus.snoop_filter.tot_requests       691802                       # Total number of requests made to the snoop filter.
system.tol2bus.snoop_filter.tot_snoops           5058                       # Total number of snoops made to the snoop filter.
system.tol3bus.snoop_filter.hit_multi_requests            0                       # Number of requests hitting in the snoop filter with multiple (>1) holders of the requested data.
system.tol3bus.snoop_filter.hit_multi_snoops            0                       # Number of snoops hitting in the snoop filter with multiple (>1) holders of the requested data.
system.tol3bus.snoop_filter.hit_single_requests       120438                       # Number of requests hitting in the snoop filter with a single holder of the requested data.
system.tol3bus.snoop_filter.hit_single_snoops        29923                       # Number of snoops hitting in the snoop filter with a single holder of the requested data.
system.tol3bus.snoop_filter.tot_requests       235003                       # Total number of requests made to the snoop filter.
system.tol3bus.snoop_filter.tot_snoops          29923                       # Total number of snoops made to the snoop filter.
system.membus.trans_dist::ReadResp              58777                       # Transaction distribution
system.membus.trans_dist::WritebackDirty        48998                       # Transaction distribution
system.membus.trans_dist::CleanEvict            38635                       # Transaction distribution
system.membus.trans_dist::UpgradeReq              156                       # Transaction distribution
system.membus.trans_dist::ReadExReq             27138                       # Transaction distribution
system.membus.trans_dist::ReadExResp            27138                       # Transaction distribution
system.membus.trans_dist::ReadSharedReq         58777                       # Transaction distribution
system.membus.pkt_count_system.l3.mem_side::system.mem_ctrls.port       259619                       # Packet count per connected master and slave (bytes)
system.membus.pkt_count_system.l3.mem_side::total       259619                       # Packet count per connected master and slave (bytes)
system.membus.pkt_count::total                 259619                       # Packet count per connected master and slave (bytes)
system.membus.pkt_size_system.l3.mem_side::system.mem_ctrls.port      8634432                       # Cumulative packet size per connected master and slave (bytes)
system.membus.pkt_size_system.l3.mem_side::total      8634432                       # Cumulative packet size per connected master and slave (bytes)
system.membus.pkt_size::total                 8634432                       # Cumulative packet size per connected master and slave (bytes)
system.membus.snoops                                0                       # Total snoops (count)
system.membus.snoopTraffic                          0                       # Total snoop traffic (bytes)
system.membus.snoop_fanout::samples             86071                       # Request fanout histogram
system.membus.snoop_fanout::mean                    0                       # Request fanout histogram
system.membus.snoop_fanout::stdev                   0                       # Request fanout histogram
system.membus.snoop_fanout::underflows              0      0.00%      0.00% # Request fanout histogram
system.membus.snoop_fanout::0                   86071    100.00%    100.00% # Request fanout histogram
system.membus.snoop_fanout::1                       0      0.00%    100.00% # Request fanout histogram
system.membus.snoop_fanout::overflows               0      0.00%    100.00% # Request fanout histogram
system.membus.snoop_fanout::min_value               0                       # Request fanout histogram
system.membus.snoop_fanout::max_value               0                       # Request fanout histogram
system.membus.snoop_fanout::total               86071                       # Request fanout histogram
system.membus.reqLayer2.occupancy           396851000                       # Layer occupancy (ticks)
system.membus.reqLayer2.utilization               0.4                       # Layer utilization (%)
system.membus.respLayer1.occupancy          459979500                       # Layer occupancy (ticks)
system.membus.respLayer1.utilization              0.5                       # Layer utilization (%)
system.membus.power_state.pwrStateResidencyTicks::UNDEFINED 1351670427500                       # Cumulative time (in ticks) in various power states
system.switch_cpus_1.dtb.walker.power_state.pwrStateResidencyTicks::UNDEFINED 1351670427500                       # Cumulative time (in ticks) in various power states
system.switch_cpus_1.itb.walker.power_state.pwrStateResidencyTicks::UNDEFINED 1351670427500                       # Cumulative time (in ticks) in various power states
system.switch_cpus_1.power_state.pwrStateResidencyTicks::OFF 1351670427500                       # Cumulative time (in ticks) in various power states
system.switch_cpus.dtb.walker.power_state.pwrStateResidencyTicks::UNDEFINED 1351670427500                       # Cumulative time (in ticks) in various power states
system.switch_cpus.itb.walker.power_state.pwrStateResidencyTicks::UNDEFINED 1351670427500                       # Cumulative time (in ticks) in various power states
system.switch_cpus.power_state.numTransitions            1                       # Number of power state transitions
system.switch_cpus.power_state.pwrStateResidencyTicks::OFF 1351670427500                       # Cumulative time (in ticks) in various power states
system.tol2bus.trans_dist::ReadResp            313389                       # Transaction distribution
system.tol2bus.trans_dist::WritebackDirty        69153                       # Transaction distribution
system.tol2bus.trans_dist::WritebackClean       213389                       # Transaction distribution
system.tol2bus.trans_dist::CleanEvict          123208                       # Transaction distribution
system.tol2bus.trans_dist::UpgradeReq            6906                       # Transaction distribution
system.tol2bus.trans_dist::UpgradeResp           6906                       # Transaction distribution
system.tol2bus.trans_dist::ReadExReq            29059                       # Transaction distribution
system.tol2bus.trans_dist::ReadExResp           29059                       # Transaction distribution
system.tol2bus.trans_dist::ReadCleanReq        313389                       # Transaction distribution
system.tol2bus.pkt_count_system.cpu.icache.mem_side::system.l2.cpu_side       640167                       # Packet count per connected master and slave (bytes)
system.tol2bus.pkt_count_system.cpu.dcache.mem_side::system.l2.cpu_side       400989                       # Packet count per connected master and slave (bytes)
system.tol2bus.pkt_count::total               1041156                       # Packet count per connected master and slave (bytes)
system.tol2bus.pkt_size_system.cpu.icache.mem_side::system.l2.cpu_side     27313792                       # Cumulative packet size per connected master and slave (bytes)
system.tol2bus.pkt_size_system.cpu.dcache.mem_side::system.l2.cpu_side     10562688                       # Cumulative packet size per connected master and slave (bytes)
system.tol2bus.pkt_size::total               37876480                       # Cumulative packet size per connected master and slave (bytes)
system.tol2bus.snoops                           63302                       # Total snoops (count)
system.tol2bus.snoopTraffic                   2122880                       # Total snoop traffic (bytes)
system.tol2bus.snoop_fanout::samples           412656                       # Request fanout histogram
system.tol2bus.snoop_fanout::mean            0.012257                       # Request fanout histogram
system.tol2bus.snoop_fanout::stdev           0.110032                       # Request fanout histogram
system.tol2bus.snoop_fanout::underflows             0      0.00%      0.00% # Request fanout histogram
system.tol2bus.snoop_fanout::0                 407598     98.77%     98.77% # Request fanout histogram
system.tol2bus.snoop_fanout::1                   5058      1.23%    100.00% # Request fanout histogram
system.tol2bus.snoop_fanout::2                      0      0.00%    100.00% # Request fanout histogram
system.tol2bus.snoop_fanout::3                      0      0.00%    100.00% # Request fanout histogram
system.tol2bus.snoop_fanout::4                      0      0.00%    100.00% # Request fanout histogram
system.tol2bus.snoop_fanout::overflows              0      0.00%    100.00% # Request fanout histogram
system.tol2bus.snoop_fanout::min_value              0                       # Request fanout histogram
system.tol2bus.snoop_fanout::max_value              1                       # Request fanout histogram
system.tol2bus.snoop_fanout::total             412656                       # Request fanout histogram
system.tol2bus.reqLayer0.occupancy          595273000                       # Layer occupancy (ticks)
system.tol2bus.reqLayer0.utilization              0.6                       # Layer utilization (%)
system.tol2bus.respLayer1.occupancy         197041500                       # Layer occupancy (ticks)
system.tol2bus.respLayer1.utilization             0.2                       # Layer utilization (%)
system.tol2bus.respLayer0.occupancy         320083500                       # Layer occupancy (ticks)
system.tol2bus.respLayer0.utilization             0.3                       # Layer utilization (%)
system.tol2bus.power_state.pwrStateResidencyTicks::UNDEFINED 1351670427500                       # Cumulative time (in ticks) in various power states
system.voltage_domain.voltage                       1                       # Voltage in Volts
system.clk_domain.clock                          1000                       # Clock period in ticks
system.l2.demand_hits::.switch_cpus_1.inst       213174                       # number of demand (read+write) hits
system.l2.demand_hits::.switch_cpus_1.data        14709                       # number of demand (read+write) hits
system.l2.demand_hits::total                   227883                       # number of demand (read+write) hits
system.l2.overall_hits::.switch_cpus_1.inst       213174                       # number of overall hits
system.l2.overall_hits::.switch_cpus_1.data        14709                       # number of overall hits
system.l2.overall_hits::total                  227883                       # number of overall hits
system.l2.demand_misses::.switch_cpus_1.inst          215                       # number of demand (read+write) misses
system.l2.demand_misses::.switch_cpus_1.data       114350                       # number of demand (read+write) misses
system.l2.demand_misses::total                 114565                       # number of demand (read+write) misses
system.l2.overall_misses::.switch_cpus_1.inst          215                       # number of overall misses
system.l2.overall_misses::.switch_cpus_1.data       114350                       # number of overall misses
system.l2.overall_misses::total                114565                       # number of overall misses
system.l2.demand_miss_latency::.switch_cpus_1.inst     19445500                       # number of demand (read+write) miss cycles
system.l2.demand_miss_latency::.switch_cpus_1.data   9444564500                       # number of demand (read+write) miss cycles
system.l2.demand_miss_latency::total       9464010000                       # number of demand (read+write) miss cycles
system.l2.overall_miss_latency::.switch_cpus_1.inst     19445500                       # number of overall miss cycles
system.l2.overall_miss_latency::.switch_cpus_1.data   9444564500                       # number of overall miss cycles
system.l2.overall_miss_latency::total      9464010000                       # number of overall miss cycles
system.l2.demand_accesses::.switch_cpus_1.inst       213389                       # number of demand (read+write) accesses
system.l2.demand_accesses::.switch_cpus_1.data       129059                       # number of demand (read+write) accesses
system.l2.demand_accesses::total               342448                       # number of demand (read+write) accesses
system.l2.overall_accesses::.switch_cpus_1.inst       213389                       # number of overall (read+write) accesses
system.l2.overall_accesses::.switch_cpus_1.data       129059                       # number of overall (read+write) accesses
system.l2.overall_accesses::total              342448                       # number of overall (read+write) accesses
system.l2.demand_miss_rate::.switch_cpus_1.inst     0.001008                       # miss rate for demand accesses
system.l2.demand_miss_rate::.switch_cpus_1.data     0.886029                       # miss rate for demand accesses
[...]
system.cpu.dcache.demand_miss_latency::total  31688613999                       # number of demand (read+write) miss cycles
system.cpu.dcache.overall_miss_latency::.switch_cpus.data    613536000                       # number of overall miss cycles
system.cpu.dcache.overall_miss_latency::.switch_cpus_1.data  31075077999                       # number of overall miss cycles
system.cpu.dcache.overall_miss_latency::total  31688613999                       # number of overall miss cycles
system.cpu.dcache.demand_accesses::.cpu.data    398468375                       # number of demand (read+write) accesses
system.cpu.dcache.demand_accesses::.switch_cpus.data     19936531                       # number of demand (read+write) accesses
system.cpu.dcache.demand_accesses::.switch_cpus_1.data    100622548                       # number of demand (read+write) accesses
system.cpu.dcache.demand_accesses::total    519027454                       # number of demand (read+write) accesses
system.cpu.dcache.overall_accesses::.cpu.data    398468375                       # number of overall (read+write) accesses
system.cpu.dcache.overall_accesses::.switch_cpus.data     19936531                       # number of overall (read+write) accesses
system.cpu.dcache.overall_accesses::.switch_cpus_1.data    100622548                       # number of overall (read+write) accesses
system.cpu.dcache.overall_accesses::total    519027454                       # number of overall (read+write) accesses
system.cpu.dcache.demand_miss_rate::.cpu.data     0.000575                       # miss rate for demand accesses
system.cpu.dcache.demand_miss_rate::.switch_cpus.data     0.000475                       # miss rate for demand accesses
system.cpu.dcache.demand_miss_rate::.switch_cpus_1.data     0.004110                       # miss rate for demand accesses
system.cpu.dcache.demand_miss_rate::total     0.001257                       # miss rate for demand accesses
system.cpu.dcache.overall_miss_rate::.cpu.data     0.000575                       # miss rate for overall accesses
system.cpu.dcache.overall_miss_rate::.switch_cpus.data     0.000475                       # miss rate for overall accesses
system.cpu.dcache.overall_miss_rate::.switch_cpus_1.data     0.004110                       # miss rate for overall accesses
system.cpu.dcache.overall_miss_rate::total     0.001257                       # miss rate for overall accesses
system.cpu.dcache.demand_avg_miss_latency::.switch_cpus.data 64828.402367                       # average overall miss latency
system.cpu.dcache.demand_avg_miss_latency::.switch_cpus_1.data 75136.800617                       # average overall miss latency
system.cpu.dcache.demand_avg_miss_latency::total 48576.464906                       # average overall miss latency
system.cpu.dcache.overall_avg_miss_latency::.switch_cpus.data 64828.402367                       # average overall miss latency
system.cpu.dcache.overall_avg_miss_latency::.switch_cpus_1.data 75136.800617                       # average overall miss latency
system.cpu.dcache.overall_avg_miss_latency::total 48576.464906                       # average overall miss latency
system.cpu.dcache.blocked_cycles::no_mshrs          481                       # number of cycles access was blocked
system.cpu.dcache.blocked_cycles::no_targets            0                       # number of cycles access was blocked
system.cpu.dcache.blocked::no_mshrs                19                       # number of cycles access was blocked
system.cpu.dcache.blocked::no_targets               0                       # number of cycles access was blocked
system.cpu.dcache.avg_blocked_cycles::no_mshrs    25.315789                       # average number of cycles each access was blocked
system.cpu.dcache.avg_blocked_cycles::no_targets          nan                       # average number of cycles each access was blocked
system.cpu.dcache.writebacks::.writebacks       165985                       # number of writebacks
system.cpu.dcache.writebacks::total            165985                       # number of writebacks
system.cpu.dcache.demand_mshr_hits::.switch_cpus_1.data       277699                       # number of demand (read+write) MSHR hits
system.cpu.dcache.demand_mshr_hits::total       277699                       # number of demand (read+write) MSHR hits
system.cpu.dcache.overall_mshr_hits::.switch_cpus_1.data       277699                       # number of overall MSHR hits
system.cpu.dcache.overall_mshr_hits::total       277699                       # number of overall MSHR hits
system.cpu.dcache.demand_mshr_misses::.switch_cpus.data         9464                       # number of demand (read+write) MSHR misses
system.cpu.dcache.demand_mshr_misses::.switch_cpus_1.data       135881                       # number of demand (read+write) MSHR misses
system.cpu.dcache.demand_mshr_misses::total       145345                       # number of demand (read+write) MSHR misses
system.cpu.dcache.overall_mshr_misses::.switch_cpus.data         9464                       # number of overall MSHR misses
system.cpu.dcache.overall_mshr_misses::.switch_cpus_1.data       135881                       # number of overall MSHR misses
system.cpu.dcache.overall_mshr_misses::total       145345                       # number of overall MSHR misses
system.cpu.dcache.demand_mshr_miss_latency::.switch_cpus.data    604072000                       # number of demand (read+write) MSHR miss cycles
system.cpu.dcache.demand_mshr_miss_latency::.switch_cpus_1.data   9973690499                       # number of demand (read+write) MSHR miss cycles
system.cpu.dcache.demand_mshr_miss_latency::total  10577762499                       # number of demand (read+write) MSHR miss cycles
system.cpu.dcache.overall_mshr_miss_latency::.switch_cpus.data    604072000                       # number of overall MSHR miss cycles
system.cpu.dcache.overall_mshr_miss_latency::.switch_cpus_1.data   9973690499                       # number of overall MSHR miss cycles
system.cpu.dcache.overall_mshr_miss_latency::total  10577762499                       # number of overall MSHR miss cycles
system.cpu.dcache.demand_mshr_miss_rate::.switch_cpus.data     0.000475                       # mshr miss rate for demand accesses
system.cpu.dcache.demand_mshr_miss_rate::.switch_cpus_1.data     0.001350                       # mshr miss rate for demand accesses
system.cpu.dcache.demand_mshr_miss_rate::total     0.000280                       # mshr miss rate for demand accesses
system.cpu.dcache.overall_mshr_miss_rate::.switch_cpus.data     0.000475                       # mshr miss rate for overall accesses
system.cpu.dcache.overall_mshr_miss_rate::.switch_cpus_1.data     0.001350                       # mshr miss rate for overall accesses
system.cpu.dcache.overall_mshr_miss_rate::total     0.000280                       # mshr miss rate for overall accesses
system.cpu.dcache.demand_avg_mshr_miss_latency::.switch_cpus.data 63828.402367                       # average overall mshr miss latency
system.cpu.dcache.demand_avg_mshr_miss_latency::.switch_cpus_1.data 73400.184713                       # average overall mshr miss latency
system.cpu.dcache.demand_avg_mshr_miss_latency::total 72776.927304                       # average overall mshr miss latency
system.cpu.dcache.overall_avg_mshr_miss_latency::.switch_cpus.data 63828.402367                       # average overall mshr miss latency
system.cpu.dcache.overall_avg_mshr_miss_latency::.switch_cpus_1.data 73400.184713                       # average overall mshr miss latency
system.cpu.dcache.overall_avg_mshr_miss_latency::total 72776.927304                       # average overall mshr miss latency
system.cpu.dcache.replacements                 365144                       # number of replacements
system.cpu.dcache.ReadReq_hits::.cpu.data    222565313                       # number of ReadReq hits
system.cpu.dcache.ReadReq_hits::.switch_cpus.data     11115150                       # number of ReadReq hits
system.cpu.dcache.ReadReq_hits::.switch_cpus_1.data     57556011                       # number of ReadReq hits
system.cpu.dcache.ReadReq_hits::total       291236474                       # number of ReadReq hits
system.cpu.dcache.ReadReq_misses::.cpu.data       103833                       # number of ReadReq misses
system.cpu.dcache.ReadReq_misses::.switch_cpus.data         4642                       # number of ReadReq misses
system.cpu.dcache.ReadReq_misses::.switch_cpus_1.data       377615                       # number of ReadReq misses
system.cpu.dcache.ReadReq_misses::total        486090                       # number of ReadReq misses
system.cpu.dcache.ReadReq_miss_latency::.switch_cpus.data    121018000                       # number of ReadReq miss cycles
system.cpu.dcache.ReadReq_miss_latency::.switch_cpus_1.data  27998234500                       # number of ReadReq miss cycles
system.cpu.dcache.ReadReq_miss_latency::total  28119252500                       # number of ReadReq miss cycles
system.cpu.dcache.ReadReq_accesses::.cpu.data    222669146                       # number of ReadReq accesses(hits+misses)
system.cpu.dcache.ReadReq_accesses::.switch_cpus.data     11119792                       # number of ReadReq accesses(hits+misses)
system.cpu.dcache.ReadReq_accesses::.switch_cpus_1.data     57933626                       # number of ReadReq accesses(hits+misses)
system.cpu.dcache.ReadReq_accesses::total    291722564                       # number of ReadReq accesses(hits+misses)
system.cpu.dcache.ReadReq_miss_rate::.cpu.data     0.000466                       # miss rate for ReadReq accesses
system.cpu.dcache.ReadReq_miss_rate::.switch_cpus.data     0.000417                       # miss rate for ReadReq accesses
system.cpu.dcache.ReadReq_miss_rate::.switch_cpus_1.data     0.006518                       # miss rate for ReadReq accesses
system.cpu.dcache.ReadReq_miss_rate::total     0.001666                       # miss rate for ReadReq accesses
system.cpu.dcache.ReadReq_avg_miss_latency::.switch_cpus.data 26070.228350                       # average ReadReq miss latency
system.cpu.dcache.ReadReq_avg_miss_latency::.switch_cpus_1.data 74144.921415                       # average ReadReq miss latency
system.cpu.dcache.ReadReq_avg_miss_latency::total 57847.831677                       # average ReadReq miss latency
system.cpu.dcache.ReadReq_mshr_hits::.switch_cpus_1.data       277615                       # number of ReadReq MSHR hits
system.cpu.dcache.ReadReq_mshr_hits::total       277615                       # number of ReadReq MSHR hits
system.cpu.dcache.ReadReq_mshr_misses::.switch_cpus.data         4642                       # number of ReadReq MSHR misses
system.cpu.dcache.ReadReq_mshr_misses::.switch_cpus_1.data       100000                       # number of ReadReq MSHR misses
system.cpu.dcache.ReadReq_mshr_misses::total       104642                       # number of ReadReq MSHR misses
system.cpu.dcache.ReadReq_mshr_miss_latency::.switch_cpus.data    116376000                       # number of ReadReq MSHR miss cycles
system.cpu.dcache.ReadReq_mshr_miss_latency::.switch_cpus_1.data   6932812000                       # number of ReadReq MSHR miss cycles
system.cpu.dcache.ReadReq_mshr_miss_latency::total   7049188000                       # number of ReadReq MSHR miss cycles
system.cpu.dcache.ReadReq_mshr_miss_rate::.switch_cpus.data     0.000417                       # mshr miss rate for ReadReq accesses
system.cpu.dcache.ReadReq_mshr_miss_rate::.switch_cpus_1.data     0.001726                       # mshr miss rate for ReadReq accesses
system.cpu.dcache.ReadReq_mshr_miss_rate::total     0.000359                       # mshr miss rate for ReadReq accesses
system.cpu.dcache.ReadReq_avg_mshr_miss_latency::.switch_cpus.data 25070.228350                       # average ReadReq mshr miss latency
system.cpu.dcache.ReadReq_avg_mshr_miss_latency::.switch_cpus_1.data 69328.120000                       # average ReadReq mshr miss latency
system.cpu.dcache.ReadReq_avg_mshr_miss_latency::total 67364.805719                       # average ReadReq mshr miss latency
system.cpu.dcache.WriteReq_hits::.cpu.data    175673761                       # number of WriteReq hits
system.cpu.dcache.WriteReq_hits::.switch_cpus.data      8811917                       # number of WriteReq hits
system.cpu.dcache.WriteReq_hits::.switch_cpus_1.data     42652957                       # number of WriteReq hits
system.cpu.dcache.WriteReq_hits::total      227138635                       # number of WriteReq hits
system.cpu.dcache.WriteReq_misses::.cpu.data       125468                       # number of WriteReq misses
system.cpu.dcache.WriteReq_misses::.switch_cpus.data         4822                       # number of WriteReq misses
system.cpu.dcache.WriteReq_misses::.switch_cpus_1.data        35965                       # number of WriteReq misses
system.cpu.dcache.WriteReq_misses::total       166255                       # number of WriteReq misses
system.cpu.dcache.WriteReq_miss_latency::.switch_cpus.data    492518000                       # number of WriteReq miss cycles
system.cpu.dcache.WriteReq_miss_latency::.switch_cpus_1.data   3076843499                       # number of WriteReq miss cycles
system.cpu.dcache.WriteReq_miss_latency::total   3569361499                       # number of WriteReq miss cycles
system.cpu.dcache.WriteReq_accesses::.cpu.data    175799229                       # number of WriteReq accesses(hits+misses)
system.cpu.dcache.WriteReq_accesses::.switch_cpus.data      8816739                       # number of WriteReq accesses(hits+misses)
system.cpu.dcache.WriteReq_accesses::.switch_cpus_1.data     42688922                       # number of WriteReq accesses(hits+misses)
system.cpu.dcache.WriteReq_accesses::total    227304890                       # number of WriteReq accesses(hits+misses)
system.cpu.dcache.WriteReq_miss_rate::.cpu.data     0.000714                       # miss rate for WriteReq accesses
system.cpu.dcache.WriteReq_miss_rate::.switch_cpus.data     0.000547                       # miss rate for WriteReq accesses
system.cpu.dcache.WriteReq_miss_rate::.switch_cpus_1.data     0.000842                       # miss rate for WriteReq accesses
system.cpu.dcache.WriteReq_miss_rate::total     0.000731                       # miss rate for WriteReq accesses
system.cpu.dcache.WriteReq_avg_miss_latency::.switch_cpus.data 102139.776027                       # average WriteReq miss latency
system.cpu.dcache.WriteReq_avg_miss_latency::.switch_cpus_1.data 85551.049604                       # average WriteReq miss latency
system.cpu.dcache.WriteReq_avg_miss_latency::total 21469.197913                       # average WriteReq miss latency
system.cpu.dcache.WriteReq_mshr_hits::.switch_cpus_1.data           84                       # number of WriteReq MSHR hits
system.cpu.dcache.WriteReq_mshr_hits::total           84                       # number of WriteReq MSHR hits
system.cpu.dcache.WriteReq_mshr_misses::.switch_cpus.data         4822                       # number of WriteReq MSHR misses
system.cpu.dcache.WriteReq_mshr_misses::.switch_cpus_1.data        35881                       # number of WriteReq MSHR misses
system.cpu.dcache.WriteReq_mshr_misses::total        40703                       # number of WriteReq MSHR misses
system.cpu.dcache.WriteReq_mshr_miss_latency::.switch_cpus.data    487696000                       # number of WriteReq MSHR miss cycles
system.cpu.dcache.WriteReq_mshr_miss_latency::.switch_cpus_1.data   3040878499                       # number of WriteReq MSHR miss cycles
system.cpu.dcache.WriteReq_mshr_miss_latency::total   3528574499                       # number of WriteReq MSHR miss cycles
system.cpu.dcache.WriteReq_mshr_miss_rate::.switch_cpus.data     0.000547                       # mshr miss rate for WriteReq accesses
system.cpu.dcache.WriteReq_mshr_miss_rate::.switch_cpus_1.data     0.000841                       # mshr miss rate for WriteReq accesses
system.cpu.dcache.WriteReq_mshr_miss_rate::total     0.000179                       # mshr miss rate for WriteReq accesses
system.cpu.dcache.WriteReq_avg_mshr_miss_latency::.switch_cpus.data 101139.776027                       # average WriteReq mshr miss latency
system.cpu.dcache.WriteReq_avg_mshr_miss_latency::.switch_cpus_1.data 84748.989688                       # average WriteReq mshr miss latency
system.cpu.dcache.WriteReq_avg_mshr_miss_latency::total 86690.772154                       # average WriteReq mshr miss latency
system.cpu.dcache.power_state.pwrStateResidencyTicks::UNDEFINED 1351670427500                       # Cumulative time (in ticks) in various power states
system.cpu.dcache.tags.tagsinuse           511.994460                       # Cycle average of tags in use
system.cpu.dcache.tags.total_refs           518749866                       # Total number of references to valid blocks.
system.cpu.dcache.tags.sampled_refs            365656                       # Sample count of references to valid blocks.
system.cpu.dcache.tags.avg_refs           1418.682767                       # Average number of references to valid blocks.
system.cpu.dcache.tags.warmup_cycle              1500                       # Cycle when the warmup percentage was hit.
system.cpu.dcache.tags.occ_blocks::.cpu.data   454.947795                       # Average occupied blocks per requestor
system.cpu.dcache.tags.occ_blocks::.switch_cpus.data    27.362912                       # Average occupied blocks per requestor
system.cpu.dcache.tags.occ_blocks::.switch_cpus_1.data    29.683753                       # Average occupied blocks per requestor
system.cpu.dcache.tags.occ_percent::.cpu.data     0.888570                       # Average percentage of cache occupancy
system.cpu.dcache.tags.occ_percent::.switch_cpus.data     0.053443                       # Average percentage of cache occupancy
system.cpu.dcache.tags.occ_percent::.switch_cpus_1.data     0.057976                       # Average percentage of cache occupancy
system.cpu.dcache.tags.occ_percent::total     0.999989                       # Average percentage of cache occupancy
system.cpu.dcache.tags.occ_task_id_blocks::1024          512                       # Occupied blocks per task id
system.cpu.dcache.tags.age_task_id_blocks_1024::0           30                       # Occupied blocks per task id
system.cpu.dcache.tags.age_task_id_blocks_1024::1          319                       # Occupied blocks per task id
system.cpu.dcache.tags.age_task_id_blocks_1024::2          142                       # Occupied blocks per task id
system.cpu.dcache.tags.age_task_id_blocks_1024::3           19                       # Occupied blocks per task id
system.cpu.dcache.tags.age_task_id_blocks_1024::4            2                       # Occupied blocks per task id
system.cpu.dcache.tags.occ_task_id_percent::1024            1                       # Percentage of cache occupancy per task id
system.cpu.dcache.tags.tag_accesses        2076475472                       # Number of tag accesses
system.cpu.dcache.tags.data_accesses       2076475472                       # Number of data accesses
system.cpu.dcache.tags.power_state.pwrStateResidencyTicks::UNDEFINED 1351670427500                       # Cumulative time (in ticks) in various power states
system.cpu.power_state.numTransitions               2                       # Number of power state transitions
system.cpu.power_state.pwrStateResidencyTicks::ON 1169538802000                       # Cumulative time (in ticks) in various power states
system.cpu.power_state.pwrStateResidencyTicks::OFF 182131625500                       # Cumulative time (in ticks) in various power states

---------- End Simulation Statistics   ----------
