
---------- Begin Simulation Statistics ----------
final_tick                               1385765902500                       # Number of ticks from beginning of simulation (restored from checkpoints and never reset)
host_inst_rate                                  60557                       # Simulator instruction rate (inst/s)
host_mem_usage                                4561948                       # Number of bytes of host memory used
host_op_rate                                   114649                       # Simulator op (including micro ops) rate (op/s)
host_seconds                                 21467.22                       # Real time elapsed on the host
host_tick_rate                                8142274                       # Simulator tick rate (ticks/s)
sim_freq                                 1000000000000                       # Frequency of simulated ticks
sim_insts                                  1300000003                       # Number of instructions simulated
sim_ops                                    2461197226                       # Number of ops (including micro ops) simulated
sim_seconds                                  0.174792                       # Number of seconds simulated
sim_ticks                                174791995000                       # Number of ticks simulated
system.cpu.committedInsts                           0                       # Number of instructions committed
system.cpu.committedOps                             0                       # Number of ops (including micro ops) committed
system.cpu.dtb.rdAccesses                           0                       # TLB accesses on read requests
system.cpu.dtb.rdMisses                             0                       # TLB misses on read requests
system.cpu.dtb.wrAccesses                           0                       # TLB accesses on write requests
system.cpu.dtb.wrMisses                             0                       # TLB misses on write requests
system.cpu.idle_fraction                            0                       # Percentage of idle cycles
system.cpu.itb.rdAccesses                           0                       # TLB accesses on read requests
system.cpu.itb.rdMisses                             0                       # TLB misses on read requests
system.cpu.itb.wrAccesses                           0                       # TLB accesses on write requests
system.cpu.itb.wrMisses                             0                       # TLB misses on write requests
system.cpu.not_idle_fraction                        1                       # Percentage of non-idle cycles
system.cpu.numCycles                                0                       # number of cpu cycles simulated
system.cpu.numWorkItemsCompleted                    0                       # number of work items this cpu completed
system.cpu.numWorkItemsStarted                      0                       # number of work items this cpu started
system.cpu.num_busy_cycles                          0                       # Number of busy cycles
system.cpu.num_conditional_control_insts            0                       # number of instructions that are conditional controls
system.cpu.num_fp_alu_accesses                      0                       # Number of float alu accesses
system.cpu.num_fp_insts                             0                       # number of float instructions
system.cpu.num_fp_register_reads                    0                       # number of times the floating registers were read
system.cpu.num_fp_register_writes                   0                       # number of times the floating registers were written
system.cpu.num_func_calls                           0                       # number of times a function call or return occured
system.cpu.num_idle_cycles                          0                       # Number of idle cycles
system.cpu.num_int_alu_accesses                     0                       # Number of integer alu accesses
system.cpu.num_int_insts                            0                       # number of integer instructions
system.cpu.num_int_register_reads                   0                       # number of times the integer registers were read
system.cpu.num_int_register_writes                  0                       # number of times the integer registers were written
system.cpu.num_load_insts                           0                       # Number of load instructions
system.cpu.num_mem_refs                             0                       # number of memory refs
system.cpu.num_store_insts                          0                       # Number of store instructions
system.cpu.num_vec_alu_accesses                     0                       # Number of vector alu accesses
system.cpu.num_vec_insts                            0                       # number of vector instructions
system.cpu.num_vec_register_reads                   0                       # number of times the vector registers were read
system.cpu.num_vec_register_writes                  0                       # number of times the vector registers were written
system.cpu.op_class::No_OpClass                     0                       # Class of executed instruction
system.cpu.op_class::IntAlu                         0                       # Class of executed instruction
system.cpu.op_class::IntMult                        0                       # Class of executed instruction
system.cpu.op_class::IntDiv                         0                       # Class of executed instruction
system.cpu.op_class::FloatAdd                       0                       # Class of executed instruction
system.cpu.op_class::FloatCmp                       0                       # Class of executed instruction
system.cpu.op_class::FloatCvt                       0                       # Class of executed instruction
system.cpu.op_class::FloatMult                      0                       # Class of executed instruction
system.cpu.op_class::FloatMultAcc                   0                       # Class of executed instruction
system.cpu.op_class::FloatDiv                       0                       # Class of executed instruction
system.cpu.op_class::FloatMisc                      0                       # Class of executed instruction
system.cpu.op_class::FloatSqrt                      0                       # Class of executed instruction
system.cpu.op_class::SimdAdd                        0                       # Class of executed instruction
system.cpu.op_class::SimdAddAcc                     0                       # Class of executed instruction
system.cpu.op_class::SimdAlu                        0                       # Class of executed instruction
system.cpu.op_class::SimdCmp                        0                       # Class of executed instruction
system.cpu.op_class::SimdCvt                        0                       # Class of executed instruction
system.cpu.op_class::SimdMisc                       0                       # Class of executed instruction
system.cpu.op_class::SimdMult                       0                       # Class of executed instruction
system.cpu.op_class::SimdMultAcc                    0                       # Class of executed instruction
system.cpu.op_class::SimdShift                      0                       # Class of executed instruction
system.cpu.op_class::SimdShiftAcc                   0                       # Class of executed instruction
system.cpu.op_class::SimdDiv                        0                       # Class of executed instruction
system.cpu.op_class::SimdSqrt                       0                       # Class of executed instruction
system.cpu.op_class::SimdFloatAdd                   0                       # Class of executed instruction
system.cpu.op_class::SimdFloatAlu                   0                       # Class of executed instruction
system.cpu.op_class::SimdFloatCmp                   0                       # Class of executed instruction
system.cpu.op_class::SimdFloatCvt                   0                       # Class of executed instruction
system.cpu.op_class::SimdFloatDiv                   0                       # Class of executed instruction
system.cpu.op_class::SimdFloatMisc                  0                       # Class of executed instruction
system.cpu.op_class::SimdFloatMult                  0                       # Class of executed instruction
system.cpu.op_class::SimdFloatMultAcc               0                       # Class of executed instruction
system.cpu.op_class::SimdFloatSqrt                  0                       # Class of executed instruction
system.cpu.op_class::SimdReduceAdd                  0                       # Class of executed instruction
system.cpu.op_class::SimdReduceAlu                  0                       # Class of executed instruction
system.cpu.op_class::SimdReduceCmp                  0                       # Class of executed instruction
system.cpu.op_class::SimdFloatReduceAdd             0                       # Class of executed instruction
system.cpu.op_class::SimdFloatReduceCmp             0                       # Class of executed instruction
system.cpu.op_class::SimdAes                        0                       # Class of executed instruction
system.cpu.op_class::SimdAesMix                     0                       # Class of executed instruction
system.cpu.op_class::SimdSha1Hash                   0                       # Class of executed instruction
system.cpu.op_class::SimdSha1Hash2                  0                       # Class of executed instruction
system.cpu.op_class::SimdSha256Hash                 0                       # Class of executed instruction
system.cpu.op_class::SimdSha256Hash2                0                       # Class of executed instruction
system.cpu.op_class::SimdShaSigma2                  0                       # Class of executed instruction
system.cpu.op_class::SimdShaSigma3                  0                       # Class of executed instruction
system.cpu.op_class::SimdPredAlu                    0                       # Class of executed instruction
system.cpu.op_class::MemRead                        0                       # Class of executed instruction
system.cpu.op_class::MemWrite                       0                       # Class of executed instruction
system.cpu.op_class::FloatMemRead                   0                       # Class of executed instruction
system.cpu.op_class::FloatMemWrite                  0                       # Class of executed instruction
system.cpu.op_class::IprAccess                      0                       # Class of executed instruction
system.cpu.op_class::InstPrefetch                   0                       # Class of executed instruction
system.cpu.op_class::total                          0                       # Class of executed instruction
system.cpu.workload.numSyscalls                     3                       # Number of system calls
system.membus.snoop_filter.hit_multi_requests            0                       # Number of requests hitting in the snoop filter with multiple (>1) holders of the requested data.
system.membus.snoop_filter.hit_multi_snoops            0                       # Number of snoops hitting in the snoop filter with multiple (>1) holders of the requested data.
system.membus.snoop_filter.hit_single_requests        79079                       # Number of requests hitting in the snoop filter with a single holder of the requested data.
system.membus.snoop_filter.hit_single_snoops            0                       # Number of snoops hitting in the snoop filter with a single holder of the requested data.
system.membus.snoop_filter.tot_requests        158295                       # Total number of requests made to the snoop filter.
system.membus.snoop_filter.tot_snoops               0                       # Total number of snoops made to the snoop filter.
system.switch_cpus.committedInsts                   0                       # Number of instructions committed
system.switch_cpus.committedOps                     0                       # Number of ops (including micro ops) committed
system.switch_cpus.dtb.rdAccesses                   0                       # TLB accesses on read requests
system.switch_cpus.dtb.rdMisses                     0                       # TLB misses on read requests
system.switch_cpus.dtb.wrAccesses                   0                       # TLB accesses on write requests
system.switch_cpus.dtb.wrMisses                     0                       # TLB misses on write requests
system.switch_cpus.idle_fraction                    0                       # Percentage of idle cycles
system.switch_cpus.itb.rdAccesses                   0                       # TLB accesses on read requests
system.switch_cpus.itb.rdMisses                     0                       # TLB misses on read requests
system.switch_cpus.itb.wrAccesses                   0                       # TLB accesses on write requests
system.switch_cpus.itb.wrMisses                     0                       # TLB misses on write requests
system.switch_cpus.not_idle_fraction                1                       # Percentage of non-idle cycles
system.switch_cpus.numCycles                        0                       # number of cpu cycles simulated
system.switch_cpus.numWorkItemsCompleted            0                       # number of work items this cpu completed
system.switch_cpus.numWorkItemsStarted              0                       # number of work items this cpu started
system.switch_cpus.num_busy_cycles                  0                       # Number of busy cycles
system.switch_cpus.num_conditional_control_insts            0                       # number of instructions that are conditional controls
system.switch_cpus.num_fp_alu_accesses              0                       # Number of float alu accesses
system.switch_cpus.num_fp_insts                     0                       # number of float instructions
system.switch_cpus.num_fp_register_reads            0                       # number of times the floating registers were read
system.switch_cpus.num_fp_register_writes            0                       # number of times the floating registers were written
system.switch_cpus.num_func_calls                   0                       # number of times a function call or return occured
system.switch_cpus.num_idle_cycles                  0                       # Number of idle cycles
system.switch_cpus.num_int_alu_accesses             0                       # Number of integer alu accesses
system.switch_cpus.num_int_insts                    0                       # number of integer instructions
system.switch_cpus.num_int_register_reads            0                       # number of times the integer registers were read
system.switch_cpus.num_int_register_writes            0                       # number of times the integer registers were written
system.switch_cpus.num_load_insts                   0                       # Number of load instructions
system.switch_cpus.num_mem_refs                     0                       # number of memory refs
system.switch_cpus.num_store_insts                  0                       # Number of store instructions
system.switch_cpus.num_vec_alu_accesses             0                       # Number of vector alu accesses
system.switch_cpus.num_vec_insts                    0                       # number of vector instructions
system.switch_cpus.num_vec_register_reads            0                       # number of times the vector registers were read
system.switch_cpus.num_vec_register_writes            0                       # number of times the vector registers were written
system.switch_cpus.op_class::No_OpClass             0                       # Class of executed instruction
system.switch_cpus.op_class::IntAlu                 0                       # Class of executed instruction
system.switch_cpus.op_class::IntMult                0                       # Class of executed instruction
system.switch_cpus.op_class::IntDiv                 0                       # Class of executed instruction
system.switch_cpus.op_class::FloatAdd               0                       # Class of executed instruction
system.switch_cpus.op_class::FloatCmp               0                       # Class of executed instruction
system.switch_cpus.op_class::FloatCvt               0                       # Class of executed instruction
system.switch_cpus.op_class::FloatMult              0                       # Class of executed instruction
system.switch_cpus.op_class::FloatMultAcc            0                       # Class of executed instruction
system.switch_cpus.op_class::FloatDiv               0                       # Class of executed instruction
system.switch_cpus.op_class::FloatMisc              0                       # Class of executed instruction
system.switch_cpus.op_class::FloatSqrt              0                       # Class of executed instruction
system.switch_cpus.op_class::SimdAdd                0                       # Class of executed instruction
system.switch_cpus.op_class::SimdAddAcc             0                       # Class of executed instruction
system.switch_cpus.op_class::SimdAlu                0                       # Class of executed instruction
system.switch_cpus.op_class::SimdCmp                0                       # Class of executed instruction
system.switch_cpus.op_class::SimdCvt                0                       # Class of executed instruction
system.switch_cpus.op_class::SimdMisc               0                       # Class of executed instruction
system.switch_cpus.op_class::SimdMult               0                       # Class of executed instruction
system.switch_cpus.op_class::SimdMultAcc            0                       # Class of executed instruction
system.switch_cpus.op_class::SimdShift              0                       # Class of executed instruction
system.switch_cpus.op_class::SimdShiftAcc            0                       # Class of executed instruction
system.switch_cpus.op_class::SimdDiv                0                       # Class of executed instruction
system.switch_cpus.op_class::SimdSqrt               0                       # Class of executed instruction
system.switch_cpus.op_class::SimdFloatAdd            0                       # Class of executed instruction
system.switch_cpus.op_class::SimdFloatAlu            0                       # Class of executed instruction
system.switch_cpus.op_class::SimdFloatCmp            0                       # Class of executed instruction
system.switch_cpus.op_class::SimdFloatCvt            0                       # Class of executed instruction
system.switch_cpus.op_class::SimdFloatDiv            0                       # Class of executed instruction
system.switch_cpus.op_class::SimdFloatMisc            0                       # Class of executed instruction
system.switch_cpus.op_class::SimdFloatMult            0                       # Class of executed instruction
system.switch_cpus.op_class::SimdFloatMultAcc            0                       # Class of executed instruction
system.switch_cpus.op_class::SimdFloatSqrt            0                       # Class of executed instruction
system.switch_cpus.op_class::SimdReduceAdd            0                       # Class of executed instruction
system.switch_cpus.op_class::SimdReduceAlu            0                       # Class of executed instruction
system.switch_cpus.op_class::SimdReduceCmp            0                       # Class of executed instruction
system.switch_cpus.op_class::SimdFloatReduceAdd            0                       # Class of executed instruction
system.switch_cpus.op_class::SimdFloatReduceCmp            0                       # Class of executed instruction
system.switch_cpus.op_class::SimdAes                0                       # Class of executed instruction
system.switch_cpus.op_class::SimdAesMix             0                       # Class of executed instruction
system.switch_cpus.op_class::SimdSha1Hash            0                       # Class of executed instruction
system.switch_cpus.op_class::SimdSha1Hash2            0                       # Class of executed instruction
system.switch_cpus.op_class::SimdSha256Hash            0                       # Class of executed instruction
system.switch_cpus.op_class::SimdSha256Hash2            0                       # Class of executed instruction
system.switch_cpus.op_class::SimdShaSigma2            0                       # Class of executed instruction
system.switch_cpus.op_class::SimdShaSigma3            0                       # Class of executed instruction
system.switch_cpus.op_class::SimdPredAlu            0                       # Class of executed instruction
system.switch_cpus.op_class::MemRead                0                       # Class of executed instruction
system.switch_cpus.op_class::MemWrite               0                       # Class of executed instruction
system.switch_cpus.op_class::FloatMemRead            0                       # Class of executed instruction
system.switch_cpus.op_class::FloatMemWrite            0                       # Class of executed instruction
system.switch_cpus.op_class::IprAccess              0                       # Class of executed instruction
system.switch_cpus.op_class::InstPrefetch            0                       # Class of executed instruction
system.switch_cpus.op_class::total                  0                       # Class of executed instruction
system.switch_cpus_1.branchPred.BTBCorrect            0                       # Number of correct BTB predictions (this stat may not work properly.
system.switch_cpus_1.branchPred.BTBHitPct          nan                       # BTB Hit Percentage
system.switch_cpus_1.branchPred.BTBHits             0                       # Number of BTB hits
system.switch_cpus_1.branchPred.BTBLookups            0                       # Number of BTB lookups
system.switch_cpus_1.branchPred.RASInCorrect         2737                       # Number of incorrect RAS predictions.
system.switch_cpus_1.branchPred.condIncorrect     19350721                       # Number of conditional branches incorrect
system.switch_cpus_1.branchPred.condPredicted    149555512                       # Number of conditional branches predicted
system.switch_cpus_1.branchPred.indirectHits     24023857                       # Number of indirect target hits.
system.switch_cpus_1.branchPred.indirectLookups     94299376                       # Number of indirect predictor lookups.
system.switch_cpus_1.branchPred.indirectMisses     70275519                       # Number of indirect misses.
system.switch_cpus_1.branchPred.lookups     174308235                       # Number of BP lookups
system.switch_cpus_1.branchPred.usedRAS       7748125                       # Number of times the RAS was used to get a target.
system.switch_cpus_1.branchPredindirectMispredicted     14882072                       # Number of mispredicted indirect branches.
system.switch_cpus_1.cc_regfile_reads       369585935                       # number of cc regfile reads
system.switch_cpus_1.cc_regfile_writes      249833134                       # number of cc regfile writes
system.switch_cpus_1.commit.amos                    0                       # Number of atomic instructions committed
system.switch_cpus_1.commit.branchMispredicts     19350730                       # The number of times a branch was mispredicted
system.switch_cpus_1.commit.branches         57605408                       # Number of branches committed
system.switch_cpus_1.commit.bw_lim_events     30107925                       # number cycles where commit BW limit reached
system.switch_cpus_1.commit.commitNonSpecStalls           15                       # The number of times commit has been forced to stall to communicate backwards
system.switch_cpus_1.commit.commitSquashedInsts    534429701                       # The number of squashed insts skipped by commit
system.switch_cpus_1.commit.committedInsts    250000000                       # Number of instructions committed
system.switch_cpus_1.commit.committedOps    472981244                       # Number of ops (including micro ops) committed
system.switch_cpus_1.commit.committed_per_cycle::samples    264157150                       # Number of insts commited each cycle
system.switch_cpus_1.commit.committed_per_cycle::mean     1.790530                       # Number of insts commited each cycle
system.switch_cpus_1.commit.committed_per_cycle::stdev     2.712636                       # Number of insts commited each cycle
system.switch_cpus_1.commit.committed_per_cycle::underflows            0      0.00%      0.00% # Number of insts commited each cycle
system.switch_cpus_1.commit.committed_per_cycle::0    144534868     54.72%     54.72% # Number of insts commited each cycle
system.switch_cpus_1.commit.committed_per_cycle::1     34614991     13.10%     67.82% # Number of insts commited each cycle
system.switch_cpus_1.commit.committed_per_cycle::2     14464554      5.48%     73.30% # Number of insts commited each cycle
system.switch_cpus_1.commit.committed_per_cycle::3     17642777      6.68%     79.97% # Number of insts commited each cycle
system.switch_cpus_1.commit.committed_per_cycle::4      8966767      3.39%     83.37% # Number of insts commited each cycle
system.switch_cpus_1.commit.committed_per_cycle::5      6283897      2.38%     85.75% # Number of insts commited each cycle
system.switch_cpus_1.commit.committed_per_cycle::6      4430736      1.68%     87.42% # Number of insts commited each cycle
system.switch_cpus_1.commit.committed_per_cycle::7      3110635      1.18%     88.60% # Number of insts commited each cycle
system.switch_cpus_1.commit.committed_per_cycle::8     30107925     11.40%    100.00% # Number of insts commited each cycle
system.switch_cpus_1.commit.committed_per_cycle::overflows            0      0.00%    100.00% # Number of insts commited each cycle
system.switch_cpus_1.commit.committed_per_cycle::min_value            0                       # Number of insts commited each cycle
system.switch_cpus_1.commit.committed_per_cycle::max_value            8                       # Number of insts commited each cycle
system.switch_cpus_1.commit.committed_per_cycle::total    264157150                       # Number of insts commited each cycle
system.switch_cpus_1.commit.fp_insts              319                       # Number of committed floating point instructions.
system.switch_cpus_1.commit.function_calls      2438809                       # Number of function calls committed.
system.switch_cpus_1.commit.int_insts       471467942                       # Number of committed integer instructions.
system.switch_cpus_1.commit.loads            60308268                       # Number of loads committed
system.switch_cpus_1.commit.membars                 0                       # Number of memory barriers committed
system.switch_cpus_1.commit.op_class_0::No_OpClass      1447327      0.31%      0.31% # Class of committed instruction
system.switch_cpus_1.commit.op_class_0::IntAlu    385528061     81.51%     81.82% # Class of committed instruction
system.switch_cpus_1.commit.op_class_0::IntMult        51407      0.01%     81.83% # Class of committed instruction
system.switch_cpus_1.commit.op_class_0::IntDiv      1085156      0.23%     82.06% # Class of committed instruction
system.switch_cpus_1.commit.op_class_0::FloatAdd           18      0.00%     82.06% # Class of committed instruction
system.switch_cpus_1.commit.op_class_0::FloatCmp            0      0.00%     82.06% # Class of committed instruction
system.switch_cpus_1.commit.op_class_0::FloatCvt            0      0.00%     82.06% # Class of committed instruction
system.switch_cpus_1.commit.op_class_0::FloatMult            0      0.00%     82.06% # Class of committed instruction
system.switch_cpus_1.commit.op_class_0::FloatMultAcc            0      0.00%     82.06% # Class of committed instruction
system.switch_cpus_1.commit.op_class_0::FloatDiv            0      0.00%     82.06% # Class of committed instruction
system.switch_cpus_1.commit.op_class_0::FloatMisc            0      0.00%     82.06% # Class of committed instruction
system.switch_cpus_1.commit.op_class_0::FloatSqrt            0      0.00%     82.06% # Class of committed instruction
system.switch_cpus_1.commit.op_class_0::SimdAdd            0      0.00%     82.06% # Class of committed instruction
system.switch_cpus_1.commit.op_class_0::SimdAddAcc            0      0.00%     82.06% # Class of committed instruction
system.switch_cpus_1.commit.op_class_0::SimdAlu           24      0.00%     82.06% # Class of committed instruction
system.switch_cpus_1.commit.op_class_0::SimdCmp            0      0.00%     82.06% # Class of committed instruction
system.switch_cpus_1.commit.op_class_0::SimdCvt           52      0.00%     82.06% # Class of committed instruction
system.switch_cpus_1.commit.op_class_0::SimdMisc          138      0.00%     82.06% # Class of committed instruction
system.switch_cpus_1.commit.op_class_0::SimdMult            0      0.00%     82.06% # Class of committed instruction
system.switch_cpus_1.commit.op_class_0::SimdMultAcc            0      0.00%     82.06% # Class of committed instruction
system.switch_cpus_1.commit.op_class_0::SimdShift            0      0.00%     82.06% # Class of committed instruction
system.switch_cpus_1.commit.op_class_0::SimdShiftAcc            0      0.00%     82.06% # Class of committed instruction
system.switch_cpus_1.commit.op_class_0::SimdDiv            0      0.00%     82.06% # Class of committed instruction
system.switch_cpus_1.commit.op_class_0::SimdSqrt            0      0.00%     82.06% # Class of committed instruction
system.switch_cpus_1.commit.op_class_0::SimdFloatAdd            0      0.00%     82.06% # Class of committed instruction
system.switch_cpus_1.commit.op_class_0::SimdFloatAlu            0      0.00%     82.06% # Class of committed instruction
system.switch_cpus_1.commit.op_class_0::SimdFloatCmp            0      0.00%     82.06% # Class of committed instruction
system.switch_cpus_1.commit.op_class_0::SimdFloatCvt            2      0.00%     82.06% # Class of committed instruction
system.switch_cpus_1.commit.op_class_0::SimdFloatDiv            0      0.00%     82.06% # Class of committed instruction
system.switch_cpus_1.commit.op_class_0::SimdFloatMisc            0      0.00%     82.06% # Class of committed instruction
system.switch_cpus_1.commit.op_class_0::SimdFloatMult            0      0.00%     82.06% # Class of committed instruction
system.switch_cpus_1.commit.op_class_0::SimdFloatMultAcc            0      0.00%     82.06% # Class of committed instruction
system.switch_cpus_1.commit.op_class_0::SimdFloatSqrt            0      0.00%     82.06% # Class of committed instruction
system.switch_cpus_1.commit.op_class_0::SimdReduceAdd            0      0.00%     82.06% # Class of committed instruction
system.switch_cpus_1.commit.op_class_0::SimdReduceAlu            0      0.00%     82.06% # Class of committed instruction
system.switch_cpus_1.commit.op_class_0::SimdReduceCmp            0      0.00%     82.06% # Class of committed instruction
system.switch_cpus_1.commit.op_class_0::SimdFloatReduceAdd            0      0.00%     82.06% # Class of committed instruction
system.switch_cpus_1.commit.op_class_0::SimdFloatReduceCmp            0      0.00%     82.06% # Class of committed instruction
system.switch_cpus_1.commit.op_class_0::SimdAes            0      0.00%     82.06% # Class of committed instruction
system.switch_cpus_1.commit.op_class_0::SimdAesMix            0      0.00%     82.06% # Class of committed instruction
system.switch_cpus_1.commit.op_class_0::SimdSha1Hash            0      0.00%     82.06% # Class of committed instruction
system.switch_cpus_1.commit.op_class_0::SimdSha1Hash2            0      0.00%     82.06% # Class of committed instruction
system.switch_cpus_1.commit.op_class_0::SimdSha256Hash            0      0.00%     82.06% # Class of committed instruction
system.switch_cpus_1.commit.op_class_0::SimdSha256Hash2            0      0.00%     82.06% # Class of committed instruction
system.switch_cpus_1.commit.op_class_0::SimdShaSigma2            0      0.00%     82.06% # Class of committed instruction
system.switch_cpus_1.commit.op_class_0::SimdShaSigma3            0      0.00%     82.06% # Class of committed instruction
system.switch_cpus_1.commit.op_class_0::SimdPredAlu            0      0.00%     82.06% # Class of committed instruction
system.switch_cpus_1.commit.op_class_0::MemRead     60308233     12.75%     94.81% # Class of committed instruction
system.switch_cpus_1.commit.op_class_0::MemWrite     24560788      5.19%    100.00% # Class of committed instruction
system.switch_cpus_1.commit.op_class_0::FloatMemRead           35      0.00%    100.00% # Class of committed instruction
system.switch_cpus_1.commit.op_class_0::FloatMemWrite            3      0.00%    100.00% # Class of committed instruction
system.switch_cpus_1.commit.op_class_0::IprAccess            0      0.00%    100.00% # Class of committed instruction
system.switch_cpus_1.commit.op_class_0::InstPrefetch            0      0.00%    100.00% # Class of committed instruction
system.switch_cpus_1.commit.op_class_0::total    472981244                       # Class of committed instruction
system.switch_cpus_1.commit.refs             84869059                       # Number of memory references committed
system.switch_cpus_1.commit.swp_count               0                       # Number of s/w prefetches committed
system.switch_cpus_1.commit.vec_insts               0                       # Number of committed Vector instructions.
system.switch_cpus_1.committedInsts         250000000                       # Number of Instructions Simulated
system.switch_cpus_1.committedOps           472981244                       # Number of Ops (including micro ops) Simulated
system.switch_cpus_1.cpi                     1.398336                       # CPI: Cycles Per Instruction
system.switch_cpus_1.cpi_total               1.398336                       # CPI: Total CPI of All Threads
system.switch_cpus_1.decode.BlockedCycles     76321007                       # Number of cycles decode is blocked
system.switch_cpus_1.decode.DecodedInsts   1302586797                       # Number of instructions handled by decode
system.switch_cpus_1.decode.IdleCycles       73883030                       # Number of cycles decode is idle
system.switch_cpus_1.decode.RunCycles       163624283                       # Number of cycles decode is running
system.switch_cpus_1.decode.SquashCycles     19380846                       # Number of cycles decode is squashing
system.switch_cpus_1.decode.UnblockCycles     16004447                       # Number of cycles decode is unblocking
system.switch_cpus_1.dtb.rdAccesses          94973154                       # TLB accesses on read requests
system.switch_cpus_1.dtb.rdMisses              320290                       # TLB misses on read requests
system.switch_cpus_1.dtb.wrAccesses          33501770                       # TLB accesses on write requests
system.switch_cpus_1.dtb.wrMisses              112061                       # TLB misses on write requests
system.switch_cpus_1.fetch.Branches         174308235                       # Number of branches that fetch encountered
system.switch_cpus_1.fetch.CacheLines        79526064                       # Number of cache lines fetched
system.switch_cpus_1.fetch.Cycles           235045403                       # Number of cycles fetch has run and was not squashing or blocked
system.switch_cpus_1.fetch.IcacheSquashes      4653574                       # Number of outstanding Icache misses that were squashed
system.switch_cpus_1.fetch.IcacheWaitRetryStallCycles           90                       # Number of stall cycles due to full MSHR
system.switch_cpus_1.fetch.Insts            758965317                       # Number of instructions fetch has processed
system.switch_cpus_1.fetch.MiscStallCycles           15                       # Number of cycles fetch has spent waiting on interrupts, or bad addresses, or out of MSHRs
system.switch_cpus_1.fetch.PendingTrapStallCycles           84                       # Number of stall cycles due to pending traps
system.switch_cpus_1.fetch.SquashCycles      38761692                       # Number of cycles fetch has spent squashing
system.switch_cpus_1.fetch.branchRate        0.498616                       # Number of branch fetches per cycle
system.switch_cpus_1.fetch.icacheStallCycles     94787181                       # Number of cycles fetch is stalled on an Icache miss
system.switch_cpus_1.fetch.predictedBranches     31771982                       # Number of branches that fetch has predicted taken
system.switch_cpus_1.fetch.rate              2.171053                       # Number of inst fetches per cycle
system.switch_cpus_1.fetch.rateDist::samples    349213619                       # Number of instructions fetched each cycle (Total)
system.switch_cpus_1.fetch.rateDist::mean     4.123194                       # Number of instructions fetched each cycle (Total)
system.switch_cpus_1.fetch.rateDist::stdev     3.659806                       # Number of instructions fetched each cycle (Total)
system.switch_cpus_1.fetch.rateDist::underflows            0      0.00%      0.00% # Number of instructions fetched each cycle (Total)
system.switch_cpus_1.fetch.rateDist::0      134689048     38.57%     38.57% # Number of instructions fetched each cycle (Total)
system.switch_cpus_1.fetch.rateDist::1        7110035      2.04%     40.61% # Number of instructions fetched each cycle (Total)
system.switch_cpus_1.fetch.rateDist::2       11133558      3.19%     43.79% # Number of instructions fetched each cycle (Total)
system.switch_cpus_1.fetch.rateDist::3        8255607      2.36%     46.16% # Number of instructions fetched each cycle (Total)
system.switch_cpus_1.fetch.rateDist::4        9387565      2.69%     48.85% # Number of instructions fetched each cycle (Total)
system.switch_cpus_1.fetch.rateDist::5       14825963      4.25%     53.09% # Number of instructions fetched each cycle (Total)
system.switch_cpus_1.fetch.rateDist::6       15106007      4.33%     57.42% # Number of instructions fetched each cycle (Total)
system.switch_cpus_1.fetch.rateDist::7        6231176      1.78%     59.20% # Number of instructions fetched each cycle (Total)
system.switch_cpus_1.fetch.rateDist::8      142474660     40.80%    100.00% # Number of instructions fetched each cycle (Total)
system.switch_cpus_1.fetch.rateDist::overflows            0      0.00%    100.00% # Number of instructions fetched each cycle (Total)
system.switch_cpus_1.fetch.rateDist::min_value            0                       # Number of instructions fetched each cycle (Total)
system.switch_cpus_1.fetch.rateDist::max_value            8                       # Number of instructions fetched each cycle (Total)
system.switch_cpus_1.fetch.rateDist::total    349213619                       # Number of instructions fetched each cycle (Total)
system.switch_cpus_1.fp_regfile_reads             779                       # number of floating regfile reads
system.switch_cpus_1.fp_regfile_writes            382                       # number of floating regfile writes
system.switch_cpus_1.idleCycles                370371                       # Total number of cycles that the CPU has spent unscheduled due to idling
system.switch_cpus_1.iew.branchMispredicts     27161059                       # Number of branch mispredicts detected at execute
system.switch_cpus_1.iew.exec_branches       82906636                       # Number of branches executed
system.switch_cpus_1.iew.exec_nop                   0                       # number of nop insts executed
system.switch_cpus_1.iew.exec_rate           2.243531                       # Inst execution rate
system.switch_cpus_1.iew.exec_refs          128476302                       # number of memory reference insts executed
system.switch_cpus_1.iew.exec_stores         33501639                       # Number of stores executed
system.switch_cpus_1.iew.exec_swp                   0                       # number of swp insts executed
system.switch_cpus_1.iew.iewBlockCycles      65726065                       # Number of cycles IEW is blocking
system.switch_cpus_1.iew.iewDispLoadInsts    126214020                       # Number of dispatched load instructions
system.switch_cpus_1.iew.iewDispNonSpecInsts           25                       # Number of dispatched non-speculative instructions
system.switch_cpus_1.iew.iewDispSquashedInsts       331992                       # Number of squashed instructions skipped by dispatch
system.switch_cpus_1.iew.iewDispStoreInsts     52693598                       # Number of dispatched store instructions
system.switch_cpus_1.iew.iewDispatchedInsts   1007405785                       # Number of instructions dispatched to IQ
system.switch_cpus_1.iew.iewExecLoadInsts     94974663                       # Number of load instructions executed
system.switch_cpus_1.iew.iewExecSquashedInsts     49403476                       # Number of squashed instructions skipped in execute
system.switch_cpus_1.iew.iewExecutedInsts    784302461                       # Number of executed instructions
system.switch_cpus_1.iew.iewIQFullEvents         6705                       # Number of times the IQ has become full, causing a stall
system.switch_cpus_1.iew.iewIdleCycles              0                       # Number of cycles IEW is idle
system.switch_cpus_1.iew.iewLSQFullEvents       139029                       # Number of times the LSQ has become full, causing a stall
system.switch_cpus_1.iew.iewSquashCycles     19380846                       # Number of cycles IEW is squashing
system.switch_cpus_1.iew.iewUnblockCycles       148644                       # Number of cycles IEW is unblocking
system.switch_cpus_1.iew.lsq.thread0.blockedLoads            0                       # Number of blocked loads due to partial load-store forwarding
system.switch_cpus_1.iew.lsq.thread0.cacheBlocked          491                       # Number of times an access to memory failed due to the cache being blocked
system.switch_cpus_1.iew.lsq.thread0.forwLoads      3753143                       # Number of loads that had data forwarded from stores
system.switch_cpus_1.iew.lsq.thread0.ignoredResponses       214509                       # Number of memory responses ignored because the instruction is squashed
system.switch_cpus_1.iew.lsq.thread0.invAddrLoads            0                       # Number of loads ignored due to an invalid address
system.switch_cpus_1.iew.lsq.thread0.invAddrSwpfs            0                       # Number of software prefetches ignored due to an invalid address
system.switch_cpus_1.iew.lsq.thread0.memOrderViolation        46238                       # Number of memory ordering violations
system.switch_cpus_1.iew.lsq.thread0.rescheduledLoads        16669                       # Number of loads that were rescheduled
system.switch_cpus_1.iew.lsq.thread0.squashedLoads     65905740                       # Number of loads squashed
system.switch_cpus_1.iew.lsq.thread0.squashedStores     28132806                       # Number of stores squashed
system.switch_cpus_1.iew.memOrderViolationEvents        46238                       # Number of memory order violations
system.switch_cpus_1.iew.predictedNotTakenIncorrect     25928428                       # Number of branches that were predicted not taken incorrectly
system.switch_cpus_1.iew.predictedTakenIncorrect      1232631                       # Number of branches that were predicted taken incorrectly
system.switch_cpus_1.iew.wb_consumers       816642995                       # num instructions consuming a value
system.switch_cpus_1.iew.wb_count           767038565                       # cumulative count of insts written-back
system.switch_cpus_1.iew.wb_fanout           0.707455                       # average fanout of values written-back
system.switch_cpus_1.iew.wb_producers       577738195                       # num instructions producing a value
system.switch_cpus_1.iew.wb_rate             2.194147                       # insts written-back per cycle
system.switch_cpus_1.iew.wb_sent            773908223                       # cumulative count of insts sent to commit
system.switch_cpus_1.int_regfile_reads      913744341                       # number of integer regfile reads
system.switch_cpus_1.int_regfile_writes     649159128                       # number of integer regfile writes
system.switch_cpus_1.ipc                     0.715136                       # IPC: Instructions Per Cycle
system.switch_cpus_1.ipc_total               0.715136                       # IPC: Total IPC of All Threads
system.switch_cpus_1.iq.FU_type_0::No_OpClass     11809674      1.42%      1.42% # Type of FU issued
system.switch_cpus_1.iq.FU_type_0::IntAlu    678074971     81.33%     82.75% # Type of FU issued
system.switch_cpus_1.iq.FU_type_0::IntMult       159284      0.02%     82.77% # Type of FU issued
system.switch_cpus_1.iq.FU_type_0::IntDiv      1131586      0.14%     82.90% # Type of FU issued
system.switch_cpus_1.iq.FU_type_0::FloatAdd           20      0.00%     82.90% # Type of FU issued
system.switch_cpus_1.iq.FU_type_0::FloatCmp            0      0.00%     82.90% # Type of FU issued
system.switch_cpus_1.iq.FU_type_0::FloatCvt            0      0.00%     82.90% # Type of FU issued
system.switch_cpus_1.iq.FU_type_0::FloatMult            0      0.00%     82.90% # Type of FU issued
system.switch_cpus_1.iq.FU_type_0::FloatMultAcc            0      0.00%     82.90% # Type of FU issued
system.switch_cpus_1.iq.FU_type_0::FloatDiv            0      0.00%     82.90% # Type of FU issued
system.switch_cpus_1.iq.FU_type_0::FloatMisc            0      0.00%     82.90% # Type of FU issued
system.switch_cpus_1.iq.FU_type_0::FloatSqrt            0      0.00%     82.90% # Type of FU issued
system.switch_cpus_1.iq.FU_type_0::SimdAdd            0      0.00%     82.90% # Type of FU issued
system.switch_cpus_1.iq.FU_type_0::SimdAddAcc            0      0.00%     82.90% # Type of FU issued
system.switch_cpus_1.iq.FU_type_0::SimdAlu           28      0.00%     82.90% # Type of FU issued
system.switch_cpus_1.iq.FU_type_0::SimdCmp            0      0.00%     82.90% # Type of FU issued
system.switch_cpus_1.iq.FU_type_0::SimdCvt           92      0.00%     82.90% # Type of FU issued
system.switch_cpus_1.iq.FU_type_0::SimdMisc          190      0.00%     82.90% # Type of FU issued
system.switch_cpus_1.iq.FU_type_0::SimdMult            0      0.00%     82.90% # Type of FU issued
system.switch_cpus_1.iq.FU_type_0::SimdMultAcc            0      0.00%     82.90% # Type of FU issued
system.switch_cpus_1.iq.FU_type_0::SimdShift            0      0.00%     82.90% # Type of FU issued
system.switch_cpus_1.iq.FU_type_0::SimdShiftAcc            0      0.00%     82.90% # Type of FU issued
system.switch_cpus_1.iq.FU_type_0::SimdDiv            0      0.00%     82.90% # Type of FU issued
system.switch_cpus_1.iq.FU_type_0::SimdSqrt            0      0.00%     82.90% # Type of FU issued
system.switch_cpus_1.iq.FU_type_0::SimdFloatAdd            0      0.00%     82.90% # Type of FU issued
system.switch_cpus_1.iq.FU_type_0::SimdFloatAlu            0      0.00%     82.90% # Type of FU issued
system.switch_cpus_1.iq.FU_type_0::SimdFloatCmp            0      0.00%     82.90% # Type of FU issued
system.switch_cpus_1.iq.FU_type_0::SimdFloatCvt            6      0.00%     82.90% # Type of FU issued
system.switch_cpus_1.iq.FU_type_0::SimdFloatDiv            0      0.00%     82.90% # Type of FU issued
system.switch_cpus_1.iq.FU_type_0::SimdFloatMisc            0      0.00%     82.90% # Type of FU issued
system.switch_cpus_1.iq.FU_type_0::SimdFloatMult            0      0.00%     82.90% # Type of FU issued
system.switch_cpus_1.iq.FU_type_0::SimdFloatMultAcc            0      0.00%     82.90% # Type of FU issued
system.switch_cpus_1.iq.FU_type_0::SimdFloatSqrt            0      0.00%     82.90% # Type of FU issued
system.switch_cpus_1.iq.FU_type_0::SimdReduceAdd            0      0.00%     82.90% # Type of FU issued
system.switch_cpus_1.iq.FU_type_0::SimdReduceAlu            0      0.00%     82.90% # Type of FU issued
system.switch_cpus_1.iq.FU_type_0::SimdReduceCmp            0      0.00%     82.90% # Type of FU issued
system.switch_cpus_1.iq.FU_type_0::SimdFloatReduceAdd            0      0.00%     82.90% # Type of FU issued
system.switch_cpus_1.iq.FU_type_0::SimdFloatReduceCmp            0      0.00%     82.90% # Type of FU issued
system.switch_cpus_1.iq.FU_type_0::SimdAes            0      0.00%     82.90% # Type of FU issued
system.switch_cpus_1.iq.FU_type_0::SimdAesMix            0      0.00%     82.90% # Type of FU issued
system.switch_cpus_1.iq.FU_type_0::SimdSha1Hash            0      0.00%     82.90% # Type of FU issued
system.switch_cpus_1.iq.FU_type_0::SimdSha1Hash2            0      0.00%     82.90% # Type of FU issued
system.switch_cpus_1.iq.FU_type_0::SimdSha256Hash            0      0.00%     82.90% # Type of FU issued
system.switch_cpus_1.iq.FU_type_0::SimdSha256Hash2            0      0.00%     82.90% # Type of FU issued
system.switch_cpus_1.iq.FU_type_0::SimdShaSigma2            0      0.00%     82.90% # Type of FU issued
system.switch_cpus_1.iq.FU_type_0::SimdShaSigma3            0      0.00%     82.90% # Type of FU issued
system.switch_cpus_1.iq.FU_type_0::SimdPredAlu            0      0.00%     82.90% # Type of FU issued
system.switch_cpus_1.iq.FU_type_0::MemRead    104870415     12.58%     95.48% # Type of FU issued
system.switch_cpus_1.iq.FU_type_0::MemWrite     37659508      4.52%    100.00% # Type of FU issued
system.switch_cpus_1.iq.FU_type_0::FloatMemRead          117      0.00%    100.00% # Type of FU issued
system.switch_cpus_1.iq.FU_type_0::FloatMemWrite           46      0.00%    100.00% # Type of FU issued
system.switch_cpus_1.iq.FU_type_0::IprAccess            0      0.00%    100.00% # Type of FU issued
system.switch_cpus_1.iq.FU_type_0::InstPrefetch            0      0.00%    100.00% # Type of FU issued
system.switch_cpus_1.iq.FU_type_0::total    833705937                       # Type of FU issued
system.switch_cpus_1.iq.fp_alu_accesses           575                       # Number of floating point alu accesses
system.switch_cpus_1.iq.fp_inst_queue_reads         1147                       # Number of floating instruction queue reads
system.switch_cpus_1.iq.fp_inst_queue_wakeup_accesses          507                       # Number of floating instruction queue wakeup accesses
system.switch_cpus_1.iq.fp_inst_queue_writes          915                       # Number of floating instruction queue writes
system.switch_cpus_1.iq.fu_busy_cnt          28091066                       # FU busy when requested
system.switch_cpus_1.iq.fu_busy_rate         0.033694                       # FU busy rate (busy events/executed inst)
system.switch_cpus_1.iq.fu_full::No_OpClass            0      0.00%      0.00% # attempts to use FU when none available
system.switch_cpus_1.iq.fu_full::IntAlu      25728629     91.59%     91.59% # attempts to use FU when none available
system.switch_cpus_1.iq.fu_full::IntMult            0      0.00%     91.59% # attempts to use FU when none available
system.switch_cpus_1.iq.fu_full::IntDiv             0      0.00%     91.59% # attempts to use FU when none available
system.switch_cpus_1.iq.fu_full::FloatAdd            0      0.00%     91.59% # attempts to use FU when none available
system.switch_cpus_1.iq.fu_full::FloatCmp            0      0.00%     91.59% # attempts to use FU when none available
system.switch_cpus_1.iq.fu_full::FloatCvt            0      0.00%     91.59% # attempts to use FU when none available
system.switch_cpus_1.iq.fu_full::FloatMult            0      0.00%     91.59% # attempts to use FU when none available
system.switch_cpus_1.iq.fu_full::FloatMultAcc            0      0.00%     91.59% # attempts to use FU when none available
system.switch_cpus_1.iq.fu_full::FloatDiv            0      0.00%     91.59% # attempts to use FU when none available
system.switch_cpus_1.iq.fu_full::FloatMisc            0      0.00%     91.59% # attempts to use FU when none available
system.switch_cpus_1.iq.fu_full::FloatSqrt            0      0.00%     91.59% # attempts to use FU when none available
system.switch_cpus_1.iq.fu_full::SimdAdd            0      0.00%     91.59% # attempts to use FU when none available
system.switch_cpus_1.iq.fu_full::SimdAddAcc            0      0.00%     91.59% # attempts to use FU when none available
system.switch_cpus_1.iq.fu_full::SimdAlu            0      0.00%     91.59% # attempts to use FU when none available
system.switch_cpus_1.iq.fu_full::SimdCmp            0      0.00%     91.59% # attempts to use FU when none available
system.switch_cpus_1.iq.fu_full::SimdCvt            0      0.00%     91.59% # attempts to use FU when none available
system.switch_cpus_1.iq.fu_full::SimdMisc            0      0.00%     91.59% # attempts to use FU when none available
system.switch_cpus_1.iq.fu_full::SimdMult            0      0.00%     91.59% # attempts to use FU when none available
system.switch_cpus_1.iq.fu_full::SimdMultAcc            0      0.00%     91.59% # attempts to use FU when none available
system.switch_cpus_1.iq.fu_full::SimdShift            0      0.00%     91.59% # attempts to use FU when none available
system.switch_cpus_1.iq.fu_full::SimdShiftAcc            0      0.00%     91.59% # attempts to use FU when none available
system.switch_cpus_1.iq.fu_full::SimdDiv            0      0.00%     91.59% # attempts to use FU when none available
system.switch_cpus_1.iq.fu_full::SimdSqrt            0      0.00%     91.59% # attempts to use FU when none available
system.switch_cpus_1.iq.fu_full::SimdFloatAdd            0      0.00%     91.59% # attempts to use FU when none available
system.switch_cpus_1.iq.fu_full::SimdFloatAlu            0      0.00%     91.59% # attempts to use FU when none available
system.switch_cpus_1.iq.fu_full::SimdFloatCmp            0      0.00%     91.59% # attempts to use FU when none available
system.switch_cpus_1.iq.fu_full::SimdFloatCvt            0      0.00%     91.59% # attempts to use FU when none available
system.switch_cpus_1.iq.fu_full::SimdFloatDiv            0      0.00%     91.59% # attempts to use FU when none available
system.switch_cpus_1.iq.fu_full::SimdFloatMisc            0      0.00%     91.59% # attempts to use FU when none available
system.switch_cpus_1.iq.fu_full::SimdFloatMult            0      0.00%     91.59% # attempts to use FU when none available
system.switch_cpus_1.iq.fu_full::SimdFloatMultAcc            0      0.00%     91.59% # attempts to use FU when none available
system.switch_cpus_1.iq.fu_full::SimdFloatSqrt            0      0.00%     91.59% # attempts to use FU when none available
system.switch_cpus_1.iq.fu_full::SimdReduceAdd            0      0.00%     91.59% # attempts to use FU when none available
system.switch_cpus_1.iq.fu_full::SimdReduceAlu            0      0.00%     91.59% # attempts to use FU when none available
system.switch_cpus_1.iq.fu_full::SimdReduceCmp            0      0.00%     91.59% # attempts to use FU when none available
system.switch_cpus_1.iq.fu_full::SimdFloatReduceAdd            0      0.00%     91.59% # attempts to use FU when none available
system.switch_cpus_1.iq.fu_full::SimdFloatReduceCmp            0      0.00%     91.59% # attempts to use FU when none available
system.switch_cpus_1.iq.fu_full::SimdAes            0      0.00%     91.59% # attempts to use FU when none available
system.switch_cpus_1.iq.fu_full::SimdAesMix            0      0.00%     91.59% # attempts to use FU when none available
system.switch_cpus_1.iq.fu_full::SimdSha1Hash            0      0.00%     91.59% # attempts to use FU when none available
system.switch_cpus_1.iq.fu_full::SimdSha1Hash2            0      0.00%     91.59% # attempts to use FU when none available
system.switch_cpus_1.iq.fu_full::SimdSha256Hash            0      0.00%     91.59% # attempts to use FU when none available
system.switch_cpus_1.iq.fu_full::SimdSha256Hash2            0      0.00%     91.59% # attempts to use FU when none available
system.switch_cpus_1.iq.fu_full::SimdShaSigma2            0      0.00%     91.59% # attempts to use FU when none available
system.switch_cpus_1.iq.fu_full::SimdShaSigma3            0      0.00%     91.59% # attempts to use FU when none available
system.switch_cpus_1.iq.fu_full::SimdPredAlu            0      0.00%     91.59% # attempts to use FU when none available
system.switch_cpus_1.iq.fu_full::MemRead      1808678      6.44%     98.03% # attempts to use FU when none available
system.switch_cpus_1.iq.fu_full::MemWrite       553751      1.97%    100.00% # attempts to use FU when none available
system.switch_cpus_1.iq.fu_full::FloatMemRead            0      0.00%    100.00% # attempts to use FU when none available
system.switch_cpus_1.iq.fu_full::FloatMemWrite            8      0.00%    100.00% # attempts to use FU when none available
system.switch_cpus_1.iq.fu_full::IprAccess            0      0.00%    100.00% # attempts to use FU when none available
system.switch_cpus_1.iq.fu_full::InstPrefetch            0      0.00%    100.00% # attempts to use FU when none available
system.switch_cpus_1.iq.int_alu_accesses    849986754                       # Number of integer alu accesses
system.switch_cpus_1.iq.int_inst_queue_reads   2058134751                       # Number of integer instruction queue reads
system.switch_cpus_1.iq.int_inst_queue_wakeup_accesses    767038058                       # Number of integer instruction queue wakeup accesses
system.switch_cpus_1.iq.int_inst_queue_writes   1541869367                       # Number of integer instruction queue writes
system.switch_cpus_1.iq.iqInstsAdded       1007405740                       # Number of instructions added to the IQ (excludes non-spec)
system.switch_cpus_1.iq.iqInstsIssued       833705937                       # Number of instructions issued
system.switch_cpus_1.iq.iqNonSpecInstsAdded           45                       # Number of non-speculative instructions added to the IQ
system.switch_cpus_1.iq.iqSquashedInstsExamined    534424511                       # Number of squashed instructions iterated over during squash; mainly for profiling
system.switch_cpus_1.iq.iqSquashedInstsIssued     13419339                       # Number of squashed instructions issued
system.switch_cpus_1.iq.iqSquashedNonSpecRemoved           30                       # Number of squashed non-spec instructions that were removed
system.switch_cpus_1.iq.iqSquashedOperandsExamined    705958236                       # Number of squashed operands that are examined and possibly removed from graph
system.switch_cpus_1.iq.issued_per_cycle::samples    349213619                       # Number of insts issued each cycle
system.switch_cpus_1.iq.issued_per_cycle::mean     2.387381                       # Number of insts issued each cycle
system.switch_cpus_1.iq.issued_per_cycle::stdev     2.728329                       # Number of insts issued each cycle
system.switch_cpus_1.iq.issued_per_cycle::underflows            0      0.00%      0.00% # Number of insts issued each cycle
system.switch_cpus_1.iq.issued_per_cycle::0    164607105     47.14%     47.14% # Number of insts issued each cycle
system.switch_cpus_1.iq.issued_per_cycle::1     22008650      6.30%     53.44% # Number of insts issued each cycle
system.switch_cpus_1.iq.issued_per_cycle::2     19922307      5.70%     59.14% # Number of insts issued each cycle
system.switch_cpus_1.iq.issued_per_cycle::3     18428526      5.28%     64.42% # Number of insts issued each cycle
system.switch_cpus_1.iq.issued_per_cycle::4     23883519      6.84%     71.26% # Number of insts issued each cycle
system.switch_cpus_1.iq.issued_per_cycle::5     28274658      8.10%     79.36% # Number of insts issued each cycle
system.switch_cpus_1.iq.issued_per_cycle::6     37682885     10.79%     90.15% # Number of insts issued each cycle
system.switch_cpus_1.iq.issued_per_cycle::7     21685333      6.21%     96.36% # Number of insts issued each cycle
system.switch_cpus_1.iq.issued_per_cycle::8     12720636      3.64%    100.00% # Number of insts issued each cycle
system.switch_cpus_1.iq.issued_per_cycle::overflows            0      0.00%    100.00% # Number of insts issued each cycle
system.switch_cpus_1.iq.issued_per_cycle::min_value            0                       # Number of insts issued each cycle
system.switch_cpus_1.iq.issued_per_cycle::max_value            8                       # Number of insts issued each cycle
system.switch_cpus_1.iq.issued_per_cycle::total    349213619                       # Number of insts issued each cycle
system.switch_cpus_1.iq.rate                 2.384852                       # Inst issue rate
system.switch_cpus_1.iq.vec_alu_accesses            0                       # Number of vector alu accesses
system.switch_cpus_1.iq.vec_inst_queue_reads            0                       # Number of vector instruction queue reads
system.switch_cpus_1.iq.vec_inst_queue_wakeup_accesses            0                       # Number of vector instruction queue wakeup accesses
system.switch_cpus_1.iq.vec_inst_queue_writes            0                       # Number of vector instruction queue writes
system.switch_cpus_1.itb.rdAccesses                 0                       # TLB accesses on read requests
system.switch_cpus_1.itb.rdMisses                   0                       # TLB misses on read requests
system.switch_cpus_1.itb.wrAccesses          79526079                       # TLB accesses on write requests
system.switch_cpus_1.itb.wrMisses                  56                       # TLB misses on write requests
system.switch_cpus_1.memDep0.conflictingLoads      4693420                       # Number of conflicting loads.
system.switch_cpus_1.memDep0.conflictingStores      3465095                       # Number of conflicting stores.
system.switch_cpus_1.memDep0.insertedLoads    126214020                       # Number of loads inserted to the mem dependence unit.
system.switch_cpus_1.memDep0.insertedStores     52693598                       # Number of stores inserted to the mem dependence unit.
system.switch_cpus_1.misc_regfile_reads     343039021                       # number of misc regfile reads
system.switch_cpus_1.misc_regfile_writes           24                       # number of misc regfile writes
system.switch_cpus_1.numCycles              349583990                       # number of cpu cycles simulated
system.switch_cpus_1.numWorkItemsCompleted            0                       # number of work items this cpu completed
system.switch_cpus_1.numWorkItemsStarted            0                       # number of work items this cpu started
system.switch_cpus_1.rename.BlockCycles      76108010                       # Number of cycles rename is blocking
system.switch_cpus_1.rename.CommittedMaps    567657143                       # Number of HB maps that are committed
system.switch_cpus_1.rename.IQFullEvents       370810                       # Number of times rename has blocked due to IQ full
system.switch_cpus_1.rename.IdleCycles       86402311                       # Number of cycles rename is idle
system.switch_cpus_1.rename.LQFullEvents       399919                       # Number of times rename has blocked due to LQ full
system.switch_cpus_1.rename.ROBFullEvents       603630                       # Number of times rename has blocked due to ROB full
system.switch_cpus_1.rename.RenameLookups   2766916649                       # Number of register rename lookups that rename has made
system.switch_cpus_1.rename.RenamedInsts   1204567985                       # Number of instructions processed by rename
system.switch_cpus_1.rename.RenamedOperands   1397828318                       # Number of destination operands rename has renamed
system.switch_cpus_1.rename.RunCycles       164397075                       # Number of cycles rename is running
system.switch_cpus_1.rename.SQFullEvents       191567                       # Number of times rename has blocked due to SQ full
system.switch_cpus_1.rename.SquashCycles     19380846                       # Number of cycles rename is squashing
system.switch_cpus_1.rename.UnblockCycles      2924995                       # Number of cycles rename is unblocking
system.switch_cpus_1.rename.UndoneMaps      830171127                       # Number of HB maps that are undone due to squashing
system.switch_cpus_1.rename.fp_rename_lookups          923                       # Number of floating rename lookups
system.switch_cpus_1.rename.int_rename_lookups   1563603490                       # Number of integer rename lookups
system.switch_cpus_1.rename.serializeStallCycles          377                       # count of cycles rename stalled for serializing inst
system.switch_cpus_1.rename.serializingInsts           15                       # count of serializing insts renamed
system.switch_cpus_1.rename.skidInsts        13998377                       # count of insts added to the skid buffer
system.switch_cpus_1.rename.tempSerializingInsts           15                       # count of temporary serializing insts renamed
system.switch_cpus_1.rob.rob_reads         1241460170                       # The number of ROB reads
system.switch_cpus_1.rob.rob_writes        2101947481                       # The number of ROB writes
system.switch_cpus_1.timesIdled                 52172                       # Number of times that the entire CPU went into an idle state and unscheduled itself
system.tol2bus.snoop_filter.hit_multi_requests            0                       # Number of requests hitting in the snoop filter with multiple (>1) holders of the requested data.
system.tol2bus.snoop_filter.hit_multi_snoops            0                       # Number of snoops hitting in the snoop filter with multiple (>1) holders of the requested data.
system.tol2bus.snoop_filter.hit_single_requests       807998                       # Number of requests hitting in the snoop filter with a single holder of the requested data.
system.tol2bus.snoop_filter.hit_single_snoops         1383                       # Number of snoops hitting in the snoop filter with a single holder of the requested data.
system.tol2bus.snoop_filter.tot_requests      1524917                       # Total number of requests made to the snoop filter.
system.tol2bus.snoop_filter.tot_snoops           1383                       # Total number of snoops made to the snoop filter.
system.tol3bus.snoop_filter.hit_multi_requests            0                       # Number of requests hitting in the snoop filter with multiple (>1) holders of the requested data.
system.tol3bus.snoop_filter.hit_multi_snoops            0                       # Number of snoops hitting in the snoop filter with multiple (>1) holders of the requested data.
system.tol3bus.snoop_filter.hit_single_requests       281284                       # Number of requests hitting in the snoop filter with a single holder of the requested data.
system.tol3bus.snoop_filter.hit_single_snoops         6214                       # Number of snoops hitting in the snoop filter with a single holder of the requested data.
system.tol3bus.snoop_filter.tot_requests       507616                       # Total number of requests made to the snoop filter.
system.tol3bus.snoop_filter.tot_snoops           6214                       # Total number of snoops made to the snoop filter.
system.membus.trans_dist::ReadResp              74536                       # Transaction distribution
system.membus.trans_dist::WritebackDirty        62028                       # Transaction distribution
system.membus.trans_dist::CleanEvict            16945                       # Transaction distribution
system.membus.trans_dist::UpgradeReq              106                       # Transaction distribution
system.membus.trans_dist::ReadExReq              4680                       # Transaction distribution
system.membus.trans_dist::ReadExResp             4680                       # Transaction distribution
system.membus.trans_dist::ReadSharedReq         74536                       # Transaction distribution
system.membus.pkt_count_system.l3.mem_side::system.mem_ctrls.port       237511                       # Packet count per connected master and slave (bytes)
system.membus.pkt_count_system.l3.mem_side::total       237511                       # Packet count per connected master and slave (bytes)
system.membus.pkt_count::total                 237511                       # Packet count per connected master and slave (bytes)
system.membus.pkt_size_system.l3.mem_side::system.mem_ctrls.port      9039616                       # Cumulative packet size per connected master and slave (bytes)
system.membus.pkt_size_system.l3.mem_side::total      9039616                       # Cumulative packet size per connected master and slave (bytes)
system.membus.pkt_size::total                 9039616                       # Cumulative packet size per connected master and slave (bytes)
system.membus.snoops                                0                       # Total snoops (count)
system.membus.snoopTraffic                          0                       # Total snoop traffic (bytes)
system.membus.snoop_fanout::samples             79322                       # Request fanout histogram
system.membus.snoop_fanout::mean                    0                       # Request fanout histogram
system.membus.snoop_fanout::stdev                   0                       # Request fanout histogram
system.membus.snoop_fanout::underflows              0      0.00%      0.00% # Request fanout histogram
system.membus.snoop_fanout::0                   79322    100.00%    100.00% # Request fanout histogram
system.membus.snoop_fanout::1                       0      0.00%    100.00% # Request fanout histogram
system.membus.snoop_fanout::overflows               0      0.00%    100.00% # Request fanout histogram
system.membus.snoop_fanout::min_value               0                       # Request fanout histogram
system.membus.snoop_fanout::max_value               0                       # Request fanout histogram
system.membus.snoop_fanout::total               79322                       # Request fanout histogram
system.membus.reqLayer2.occupancy           424587500                       # Layer occupancy (ticks)
system.membus.reqLayer2.utilization               0.2                       # Layer utilization (%)
system.membus.respLayer1.occupancy          434342500                       # Layer occupancy (ticks)
system.membus.respLayer1.utilization              0.2                       # Layer utilization (%)
system.membus.power_state.pwrStateResidencyTicks::UNDEFINED 1385765902500                       # Cumulative time (in ticks) in various power states
system.switch_cpus_1.dtb.walker.power_state.pwrStateResidencyTicks::UNDEFINED 1385765902500                       # Cumulative time (in ticks) in various power states
system.switch_cpus_1.itb.walker.power_state.pwrStateResidencyTicks::UNDEFINED 1385765902500                       # Cumulative time (in ticks) in various power states
system.switch_cpus_1.power_state.pwrStateResidencyTicks::OFF 1385765902500                       # Cumulative time (in ticks) in various power states
system.switch_cpus.dtb.walker.power_state.pwrStateResidencyTicks::UNDEFINED 1385765902500                       # Cumulative time (in ticks) in various power states
system.switch_cpus.itb.walker.power_state.pwrStateResidencyTicks::UNDEFINED 1385765902500                       # Cumulative time (in ticks) in various power states
system.switch_cpus.power_state.numTransitions            1                       # Number of power state transitions
system.switch_cpus.power_state.pwrStateResidencyTicks::OFF 1385765902500                       # Cumulative time (in ticks) in various power states
system.tol2bus.trans_dist::ReadResp            575728                       # Transaction distribution
system.tol2bus.trans_dist::WritebackDirty       295138                       # Transaction distribution
system.tol2bus.trans_dist::WritebackClean       265700                       # Transaction distribution
system.tol2bus.trans_dist::CleanEvict          225476                       # Transaction distribution
system.tol2bus.trans_dist::UpgradeReq           91079                       # Transaction distribution
system.tol2bus.trans_dist::UpgradeResp          91079                       # Transaction distribution
system.tol2bus.trans_dist::ReadExReq           141191                       # Transaction distribution
system.tol2bus.trans_dist::ReadExResp          141191                       # Transaction distribution
system.tol2bus.trans_dist::ReadCleanReq        575728                       # Transaction distribution
system.tol2bus.pkt_count_system.cpu.icache.mem_side::system.l2.cpu_side       797100                       # Packet count per connected master and slave (bytes)
system.tol2bus.pkt_count_system.cpu.dcache.mem_side::system.l2.cpu_side      1535815                       # Packet count per connected master and slave (bytes)
system.tol2bus.pkt_count::total               2332915                       # Packet count per connected master and slave (bytes)
system.tol2bus.pkt_size_system.cpu.icache.mem_side::system.l2.cpu_side     34009600                       # Cumulative packet size per connected master and slave (bytes)
system.tol2bus.pkt_size_system.cpu.dcache.mem_side::system.l2.cpu_side     43745984                       # Cumulative packet size per connected master and slave (bytes)
system.tol2bus.pkt_size::total               77755584                       # Cumulative packet size per connected master and slave (bytes)
system.tol2bus.snoops                           69395                       # Total snoops (count)
system.tol2bus.snoopTraffic                   4020864                       # Total snoop traffic (bytes)
system.tol2bus.snoop_fanout::samples           877393                       # Request fanout histogram
system.tol2bus.snoop_fanout::mean            0.001576                       # Request fanout histogram
system.tol2bus.snoop_fanout::stdev           0.039671                       # Request fanout histogram
system.tol2bus.snoop_fanout::underflows             0      0.00%      0.00% # Request fanout histogram
system.tol2bus.snoop_fanout::0                 876010     99.84%     99.84% # Request fanout histogram
system.tol2bus.snoop_fanout::1                   1383      0.16%    100.00% # Request fanout histogram
system.tol2bus.snoop_fanout::2                      0      0.00%    100.00% # Request fanout histogram
system.tol2bus.snoop_fanout::3                      0      0.00%    100.00% # Request fanout histogram
system.tol2bus.snoop_fanout::4                      0      0.00%    100.00% # Request fanout histogram
system.tol2bus.snoop_fanout::overflows              0      0.00%    100.00% # Request fanout histogram
system.tol2bus.snoop_fanout::min_value              0                       # Request fanout histogram
system.tol2bus.snoop_fanout::max_value              1                       # Request fanout histogram
system.tol2bus.snoop_fanout::total             877393                       # Request fanout histogram
system.tol2bus.reqLayer0.occupancy         1260470500                       # Layer occupancy (ticks)
system.tol2bus.reqLayer0.utilization              0.7                       # Layer utilization (%)
system.tol2bus.respLayer1.occupancy         722536662                       # Layer occupancy (ticks)
system.tol2bus.respLayer1.utilization             0.4                       # Layer utilization (%)
system.tol2bus.respLayer0.occupancy         398618363                       # Layer occupancy (ticks)
system.tol2bus.respLayer0.utilization             0.2                       # Layer utilization (%)
system.tol2bus.power_state.pwrStateResidencyTicks::UNDEFINED 1385765902500                       # Cumulative time (in ticks) in various power states
system.voltage_domain.voltage                       1                       # Voltage in Volts
system.clk_domain.clock                          1000                       # Clock period in ticks
system.l2.demand_hits::.switch_cpus_1.inst       265311                       # number of demand (read+write) hits
system.l2.demand_hits::.switch_cpus_1.data       225276                       # number of demand (read+write) hits
system.l2.demand_hits::total                   490587                       # number of demand (read+write) hits
system.l2.overall_hits::.switch_cpus_1.inst       265311                       # number of overall hits
system.l2.overall_hits::.switch_cpus_1.data       225276                       # number of overall hits
system.l2.overall_hits::total                  490587                       # number of overall hits
system.l2.demand_misses::.switch_cpus_1.inst          389                       # number of demand (read+write) misses
system.l2.demand_misses::.switch_cpus_1.data       225943                       # number of demand (read+write) misses
system.l2.demand_misses::total                 226332                       # number of demand (read+write) misses
system.l2.overall_misses::.switch_cpus_1.inst          389                       # number of overall misses
system.l2.overall_misses::.switch_cpus_1.data       225943                       # number of overall misses
system.l2.overall_misses::total                226332                       # number of overall misses
system.l2.demand_miss_latency::.switch_cpus_1.inst     41611000                       # number of demand (read+write) miss cycles
system.l2.demand_miss_latency::.switch_cpus_1.data  12791571500                       # number of demand (read+write) miss cycles
system.l2.demand_miss_latency::total      12833182500                       # number of demand (read+write) miss cycles
system.l2.overall_miss_latency::.switch_cpus_1.inst     41611000                       # number of overall miss cycles
system.l2.overall_miss_latency::.switch_cpus_1.data  12791571500                       # number of overall miss cycles
system.l2.overall_miss_latency::total     12833182500                       # number of overall miss cycles
system.l2.demand_accesses::.switch_cpus_1.inst       265700                       # number of demand (read+write) accesses
system.l2.demand_accesses::.switch_cpus_1.data       451219                       # number of demand (read+write) accesses
system.l2.demand_accesses::total               716919                       # number of demand (read+write) accesses
system.l2.overall_accesses::.switch_cpus_1.inst       265700                       # number of overall (read+write) accesses
system.l2.overall_accesses::.switch_cpus_1.data       451219                       # number of overall (read+write) accesses
system.l2.overall_accesses::total              716919                       # number of overall (read+write) accesses
system.l2.demand_miss_rate::.switch_cpus_1.inst     0.001464                       # miss rate for demand accesses
[...]
system.cpu.dcache.demand_miss_latency::total  25665176999                       # number of demand (read+write) miss cycles
system.cpu.dcache.overall_miss_latency::.switch_cpus.data   3439801000                       # number of overall miss cycles
system.cpu.dcache.overall_miss_latency::.switch_cpus_1.data  22225375999                       # number of overall miss cycles
system.cpu.dcache.overall_miss_latency::total  25665176999                       # number of overall miss cycles
system.cpu.dcache.demand_accesses::.cpu.data    383069519                       # number of demand (read+write) accesses
system.cpu.dcache.demand_accesses::.switch_cpus.data     16518877                       # number of demand (read+write) accesses
system.cpu.dcache.demand_accesses::.switch_cpus_1.data    115607330                       # number of demand (read+write) accesses
system.cpu.dcache.demand_accesses::total    515195726                       # number of demand (read+write) accesses
system.cpu.dcache.overall_accesses::.cpu.data    383069519                       # number of overall (read+write) accesses
system.cpu.dcache.overall_accesses::.switch_cpus.data     16518877                       # number of overall (read+write) accesses
system.cpu.dcache.overall_accesses::.switch_cpus_1.data    115607330                       # number of overall (read+write) accesses
system.cpu.dcache.overall_accesses::total    515195726                       # number of overall (read+write) accesses
system.cpu.dcache.demand_miss_rate::.cpu.data     0.026183                       # miss rate for demand accesses
system.cpu.dcache.demand_miss_rate::.switch_cpus.data     0.005795                       # miss rate for demand accesses
system.cpu.dcache.demand_miss_rate::.switch_cpus_1.data     0.006101                       # miss rate for demand accesses
system.cpu.dcache.demand_miss_rate::total     0.021023                       # miss rate for demand accesses
system.cpu.dcache.overall_miss_rate::.cpu.data     0.026183                       # miss rate for overall accesses
system.cpu.dcache.overall_miss_rate::.switch_cpus.data     0.005795                       # miss rate for overall accesses
system.cpu.dcache.overall_miss_rate::.switch_cpus_1.data     0.006101                       # miss rate for overall accesses
system.cpu.dcache.overall_miss_rate::total     0.021023                       # miss rate for overall accesses
system.cpu.dcache.demand_avg_miss_latency::.switch_cpus.data 35933.821532                       # average overall miss latency
system.cpu.dcache.demand_avg_miss_latency::.switch_cpus_1.data 31508.998164                       # average overall miss latency
system.cpu.dcache.demand_avg_miss_latency::total  2369.563164                       # average overall miss latency
system.cpu.dcache.overall_avg_miss_latency::.switch_cpus.data 35933.821532                       # average overall miss latency
system.cpu.dcache.overall_avg_miss_latency::.switch_cpus_1.data 31508.998164                       # average overall miss latency
system.cpu.dcache.overall_avg_miss_latency::total  2369.563164                       # average overall miss latency
system.cpu.dcache.blocked_cycles::no_mshrs         9890                       # number of cycles access was blocked
system.cpu.dcache.blocked_cycles::no_targets          189                       # number of cycles access was blocked
system.cpu.dcache.blocked::no_mshrs               837                       # number of cycles access was blocked
system.cpu.dcache.blocked::no_targets               1                       # number of cycles access was blocked
system.cpu.dcache.avg_blocked_cycles::no_mshrs    11.816010                       # average number of cycles each access was blocked
system.cpu.dcache.avg_blocked_cycles::no_targets          189                       # average number of cycles each access was blocked
system.cpu.dcache.writebacks::.writebacks      9403507                       # number of writebacks
system.cpu.dcache.writebacks::total           9403507                       # number of writebacks
system.cpu.dcache.demand_mshr_hits::.switch_cpus_1.data       165121                       # number of demand (read+write) MSHR hits
system.cpu.dcache.demand_mshr_hits::total       165121                       # number of demand (read+write) MSHR hits
system.cpu.dcache.overall_mshr_hits::.switch_cpus_1.data       165121                       # number of overall MSHR hits
system.cpu.dcache.overall_mshr_hits::total       165121                       # number of overall MSHR hits
system.cpu.dcache.demand_mshr_misses::.switch_cpus.data        95726                       # number of demand (read+write) MSHR misses
system.cpu.dcache.demand_mshr_misses::.switch_cpus_1.data       540245                       # number of demand (read+write) MSHR misses
system.cpu.dcache.demand_mshr_misses::total       635971                       # number of demand (read+write) MSHR misses
system.cpu.dcache.overall_mshr_misses::.switch_cpus.data        95726                       # number of overall MSHR misses
system.cpu.dcache.overall_mshr_misses::.switch_cpus_1.data       540245                       # number of overall MSHR misses
system.cpu.dcache.overall_mshr_misses::total       635971                       # number of overall MSHR misses
system.cpu.dcache.demand_mshr_miss_latency::.switch_cpus.data   3344075000                       # number of demand (read+write) MSHR miss cycles
system.cpu.dcache.demand_mshr_miss_latency::.switch_cpus_1.data  17657723999                       # number of demand (read+write) MSHR miss cycles
system.cpu.dcache.demand_mshr_miss_latency::total  21001798999                       # number of demand (read+write) MSHR miss cycles
system.cpu.dcache.overall_mshr_miss_latency::.switch_cpus.data   3344075000                       # number of overall MSHR miss cycles
system.cpu.dcache.overall_mshr_miss_latency::.switch_cpus_1.data  17657723999                       # number of overall MSHR miss cycles
system.cpu.dcache.overall_mshr_miss_latency::total  21001798999                       # number of overall MSHR miss cycles
system.cpu.dcache.demand_mshr_miss_rate::.switch_cpus.data     0.005795                       # mshr miss rate for demand accesses
system.cpu.dcache.demand_mshr_miss_rate::.switch_cpus_1.data     0.004673                       # mshr miss rate for demand accesses
system.cpu.dcache.demand_mshr_miss_rate::total     0.001234                       # mshr miss rate for demand accesses
system.cpu.dcache.overall_mshr_miss_rate::.switch_cpus.data     0.005795                       # mshr miss rate for overall accesses
system.cpu.dcache.overall_mshr_miss_rate::.switch_cpus_1.data     0.004673                       # mshr miss rate for overall accesses
system.cpu.dcache.overall_mshr_miss_rate::total     0.001234                       # mshr miss rate for overall accesses
system.cpu.dcache.demand_avg_mshr_miss_latency::.switch_cpus.data 34933.821532                       # average overall mshr miss latency
system.cpu.dcache.demand_avg_mshr_miss_latency::.switch_cpus_1.data 32684.659736                       # average overall mshr miss latency
system.cpu.dcache.demand_avg_mshr_miss_latency::total 33023.202314                       # average overall mshr miss latency
system.cpu.dcache.overall_avg_mshr_miss_latency::.switch_cpus.data 34933.821532                       # average overall mshr miss latency
system.cpu.dcache.overall_avg_mshr_miss_latency::.switch_cpus_1.data 32684.659736                       # average overall mshr miss latency
system.cpu.dcache.overall_avg_mshr_miss_latency::total 33023.202314                       # average overall mshr miss latency
system.cpu.dcache.replacements               10246362                       # number of replacements
system.cpu.dcache.ReadReq_hits::.cpu.data    226395386                       # number of ReadReq hits
system.cpu.dcache.ReadReq_hits::.switch_cpus.data     11964001                       # number of ReadReq hits
system.cpu.dcache.ReadReq_hits::.switch_cpus_1.data     90573445                       # number of ReadReq hits
system.cpu.dcache.ReadReq_hits::total       328932832                       # number of ReadReq hits
system.cpu.dcache.ReadReq_misses::.cpu.data       905512                       # number of ReadReq misses
system.cpu.dcache.ReadReq_misses::.switch_cpus.data        48838                       # number of ReadReq misses
system.cpu.dcache.ReadReq_misses::.switch_cpus_1.data       473096                       # number of ReadReq misses
system.cpu.dcache.ReadReq_misses::total       1427446                       # number of ReadReq misses
system.cpu.dcache.ReadReq_miss_latency::.switch_cpus.data   2538655000                       # number of ReadReq miss cycles
system.cpu.dcache.ReadReq_miss_latency::.switch_cpus_1.data  18002173500                       # number of ReadReq miss cycles
system.cpu.dcache.ReadReq_miss_latency::total  20540828500                       # number of ReadReq miss cycles
system.cpu.dcache.ReadReq_accesses::.cpu.data    227300898                       # number of ReadReq accesses(hits+misses)
system.cpu.dcache.ReadReq_accesses::.switch_cpus.data     12012839                       # number of ReadReq accesses(hits+misses)
system.cpu.dcache.ReadReq_accesses::.switch_cpus_1.data     91046541                       # number of ReadReq accesses(hits+misses)
system.cpu.dcache.ReadReq_accesses::total    330360278                       # number of ReadReq accesses(hits+misses)
system.cpu.dcache.ReadReq_miss_rate::.cpu.data     0.003984                       # miss rate for ReadReq accesses
system.cpu.dcache.ReadReq_miss_rate::.switch_cpus.data     0.004065                       # miss rate for ReadReq accesses
system.cpu.dcache.ReadReq_miss_rate::.switch_cpus_1.data     0.005196                       # miss rate for ReadReq accesses
system.cpu.dcache.ReadReq_miss_rate::total     0.004321                       # miss rate for ReadReq accesses
system.cpu.dcache.ReadReq_avg_miss_latency::.switch_cpus.data 51981.141734                       # average ReadReq miss latency
system.cpu.dcache.ReadReq_avg_miss_latency::.switch_cpus_1.data 38051.840430                       # average ReadReq miss latency
system.cpu.dcache.ReadReq_avg_miss_latency::total 14389.916326                       # average ReadReq miss latency
system.cpu.dcache.ReadReq_mshr_hits::.switch_cpus_1.data       162892                       # number of ReadReq MSHR hits
system.cpu.dcache.ReadReq_mshr_hits::total       162892                       # number of ReadReq MSHR hits
system.cpu.dcache.ReadReq_mshr_misses::.switch_cpus.data        48838                       # number of ReadReq MSHR misses
system.cpu.dcache.ReadReq_mshr_misses::.switch_cpus_1.data       310204                       # number of ReadReq MSHR misses
system.cpu.dcache.ReadReq_mshr_misses::total       359042                       # number of ReadReq MSHR misses
system.cpu.dcache.ReadReq_mshr_miss_latency::.switch_cpus.data   2489817000                       # number of ReadReq MSHR miss cycles
system.cpu.dcache.ReadReq_mshr_miss_latency::.switch_cpus_1.data  13669145500                       # number of ReadReq MSHR miss cycles
system.cpu.dcache.ReadReq_mshr_miss_latency::total  16158962500                       # number of ReadReq MSHR miss cycles
system.cpu.dcache.ReadReq_mshr_miss_rate::.switch_cpus.data     0.004065                       # mshr miss rate for ReadReq accesses
system.cpu.dcache.ReadReq_mshr_miss_rate::.switch_cpus_1.data     0.003407                       # mshr miss rate for ReadReq accesses
system.cpu.dcache.ReadReq_mshr_miss_rate::total     0.001087                       # mshr miss rate for ReadReq accesses
system.cpu.dcache.ReadReq_avg_mshr_miss_latency::.switch_cpus.data 50981.141734                       # average ReadReq mshr miss latency
system.cpu.dcache.ReadReq_avg_mshr_miss_latency::.switch_cpus_1.data 44065.020116                       # average ReadReq mshr miss latency
system.cpu.dcache.ReadReq_avg_mshr_miss_latency::total 45005.772305                       # average ReadReq mshr miss latency
system.cpu.dcache.WriteReq_hits::.cpu.data    146644040                       # number of WriteReq hits
system.cpu.dcache.WriteReq_hits::.switch_cpus.data      4459150                       # number of WriteReq hits
system.cpu.dcache.WriteReq_hits::.switch_cpus_1.data     24328519                       # number of WriteReq hits
system.cpu.dcache.WriteReq_hits::total      175431709                       # number of WriteReq hits
system.cpu.dcache.WriteReq_misses::.cpu.data      9124581                       # number of WriteReq misses
system.cpu.dcache.WriteReq_misses::.switch_cpus.data        46888                       # number of WriteReq misses
system.cpu.dcache.WriteReq_misses::.switch_cpus_1.data       232270                       # number of WriteReq misses
system.cpu.dcache.WriteReq_misses::total      9403739                       # number of WriteReq misses
system.cpu.dcache.WriteReq_miss_latency::.switch_cpus.data    901146000                       # number of WriteReq miss cycles
system.cpu.dcache.WriteReq_miss_latency::.switch_cpus_1.data   4223202499                       # number of WriteReq miss cycles
system.cpu.dcache.WriteReq_miss_latency::total   5124348499                       # number of WriteReq miss cycles
system.cpu.dcache.WriteReq_accesses::.cpu.data    155768621                       # number of WriteReq accesses(hits+misses)
system.cpu.dcache.WriteReq_accesses::.switch_cpus.data      4506038                       # number of WriteReq accesses(hits+misses)
system.cpu.dcache.WriteReq_accesses::.switch_cpus_1.data     24560789                       # number of WriteReq accesses(hits+misses)
system.cpu.dcache.WriteReq_accesses::total    184835448                       # number of WriteReq accesses(hits+misses)
system.cpu.dcache.WriteReq_miss_rate::.cpu.data     0.058578                       # miss rate for WriteReq accesses
system.cpu.dcache.WriteReq_miss_rate::.switch_cpus.data     0.010406                       # miss rate for WriteReq accesses
system.cpu.dcache.WriteReq_miss_rate::.switch_cpus_1.data     0.009457                       # miss rate for WriteReq accesses
system.cpu.dcache.WriteReq_miss_rate::total     0.050876                       # miss rate for WriteReq accesses
system.cpu.dcache.WriteReq_avg_miss_latency::.switch_cpus.data 19219.117898                       # average WriteReq miss latency
system.cpu.dcache.WriteReq_avg_miss_latency::.switch_cpus_1.data 18182.298614                       # average WriteReq miss latency
system.cpu.dcache.WriteReq_avg_miss_latency::total   544.926704                       # average WriteReq miss latency
system.cpu.dcache.WriteReq_mshr_hits::.switch_cpus_1.data         2229                       # number of WriteReq MSHR hits
system.cpu.dcache.WriteReq_mshr_hits::total         2229                       # number of WriteReq MSHR hits
system.cpu.dcache.WriteReq_mshr_misses::.switch_cpus.data        46888                       # number of WriteReq MSHR misses
system.cpu.dcache.WriteReq_mshr_misses::.switch_cpus_1.data       230041                       # number of WriteReq MSHR misses
system.cpu.dcache.WriteReq_mshr_misses::total       276929                       # number of WriteReq MSHR misses
system.cpu.dcache.WriteReq_mshr_miss_latency::.switch_cpus.data    854258000                       # number of WriteReq MSHR miss cycles
system.cpu.dcache.WriteReq_mshr_miss_latency::.switch_cpus_1.data   3988578499                       # number of WriteReq MSHR miss cycles
system.cpu.dcache.WriteReq_mshr_miss_latency::total   4842836499                       # number of WriteReq MSHR miss cycles
system.cpu.dcache.WriteReq_mshr_miss_rate::.switch_cpus.data     0.010406                       # mshr miss rate for WriteReq accesses
system.cpu.dcache.WriteReq_mshr_miss_rate::.switch_cpus_1.data     0.009366                       # mshr miss rate for WriteReq accesses
system.cpu.dcache.WriteReq_mshr_miss_rate::total     0.001498                       # mshr miss rate for WriteReq accesses
system.cpu.dcache.WriteReq_avg_mshr_miss_latency::.switch_cpus.data 18219.117898                       # average WriteReq mshr miss latency
system.cpu.dcache.WriteReq_avg_mshr_miss_latency::.switch_cpus_1.data 17338.554862                       # average WriteReq mshr miss latency
system.cpu.dcache.WriteReq_avg_mshr_miss_latency::total 17487.646650                       # average WriteReq mshr miss latency
system.cpu.dcache.power_state.pwrStateResidencyTicks::UNDEFINED 1385765902500                       # Cumulative time (in ticks) in various power states
system.cpu.dcache.tags.tagsinuse           511.995733                       # Cycle average of tags in use
system.cpu.dcache.tags.total_refs           515033134                       # Total number of references to valid blocks.
system.cpu.dcache.tags.sampled_refs          10246874                       # Sample count of references to valid blocks.
system.cpu.dcache.tags.avg_refs             50.262464                       # Average number of references to valid blocks.
system.cpu.dcache.tags.warmup_cycle              1500                       # Cycle when the warmup percentage was hit.
system.cpu.dcache.tags.occ_blocks::.cpu.data   419.291946                       # Average occupied blocks per requestor
system.cpu.dcache.tags.occ_blocks::.switch_cpus.data    30.384105                       # Average occupied blocks per requestor
system.cpu.dcache.tags.occ_blocks::.switch_cpus_1.data    62.319682                       # Average occupied blocks per requestor
system.cpu.dcache.tags.occ_percent::.cpu.data     0.818930                       # Average percentage of cache occupancy
system.cpu.dcache.tags.occ_percent::.switch_cpus.data     0.059344                       # Average percentage of cache occupancy
system.cpu.dcache.tags.occ_percent::.switch_cpus_1.data     0.121718                       # Average percentage of cache occupancy
system.cpu.dcache.tags.occ_percent::total     0.999992                       # Average percentage of cache occupancy
system.cpu.dcache.tags.occ_task_id_blocks::1024          512                       # Occupied blocks per task id
system.cpu.dcache.tags.age_task_id_blocks_1024::0           19                       # Occupied blocks per task id
system.cpu.dcache.tags.age_task_id_blocks_1024::1          204                       # Occupied blocks per task id
system.cpu.dcache.tags.age_task_id_blocks_1024::2          201                       # Occupied blocks per task id
system.cpu.dcache.tags.age_task_id_blocks_1024::3           63                       # Occupied blocks per task id
system.cpu.dcache.tags.age_task_id_blocks_1024::4           25                       # Occupied blocks per task id
system.cpu.dcache.tags.occ_task_id_percent::1024            1                       # Percentage of cache occupancy per task id
system.cpu.dcache.tags.tag_accesses        2071029778                       # Number of tag accesses
system.cpu.dcache.tags.data_accesses       2071029778                       # Number of data accesses
system.cpu.dcache.tags.power_state.pwrStateResidencyTicks::UNDEFINED 1385765902500                       # Cumulative time (in ticks) in various power states
system.cpu.power_state.numTransitions               2                       # Number of power state transitions
system.cpu.power_state.pwrStateResidencyTicks::ON 1123541832500                       # Cumulative time (in ticks) in various power states
system.cpu.power_state.pwrStateResidencyTicks::OFF 262224070000                       # Cumulative time (in ticks) in various power states

---------- End Simulation Statistics   ----------
