
---------- Begin Simulation Statistics ----------
final_tick                               1147019283000                       # Number of ticks from beginning of simulation (restored from checkpoints and never reset)
host_inst_rate                                 696622                       # Simulator instruction rate (inst/s)
host_mem_usage                                4563424                       # Number of bytes of host memory used
host_op_rate                                  1059638                       # Simulator op (including micro ops) rate (op/s)
host_seconds                                  1866.15                       # Real time elapsed on the host
host_tick_rate                               45582694                       # Simulator tick rate (ticks/s)
sim_freq                                 1000000000000                       # Frequency of simulated ticks
sim_insts                                  1300000002                       # Number of instructions simulated
sim_ops                                    1977442352                       # Number of ops (including micro ops) simulated
sim_seconds                                  0.085064                       # Number of seconds simulated
sim_ticks                                 85064094000                       # Number of ticks simulated
system.cpu.committedInsts                           0                       # Number of instructions committed
system.cpu.committedOps                             0                       # Number of ops (including micro ops) committed
system.cpu.dtb.rdAccesses                           0                       # TLB accesses on read requests
system.cpu.dtb.rdMisses                             0                       # TLB misses on read requests
system.cpu.dtb.wrAccesses                           0                       # TLB accesses on write requests
system.cpu.dtb.wrMisses                             0                       # TLB misses on write requests
system.cpu.idle_fraction                            0                       # Percentage of idle cycles
system.cpu.itb.rdAccesses                           0                       # TLB accesses on read requests
system.cpu.itb.rdMisses                             0                       # TLB misses on read requests
system.cpu.itb.wrAccesses                           0                       # TLB accesses on write requests
system.cpu.itb.wrMisses                             0                       # TLB misses on write requests
system.cpu.not_idle_fraction                        1                       # Percentage of non-idle cycles
system.cpu.numCycles                                0                       # number of cpu cycles simulated
system.cpu.numWorkItemsCompleted                    0                       # number of work items this cpu completed
system.cpu.numWorkItemsStarted                      0                       # number of work items this cpu started
system.cpu.num_busy_cycles                          0                       # Number of busy cycles
system.cpu.num_conditional_control_insts            0                       # number of instructions that are conditional controls
system.cpu.num_fp_alu_accesses                      0                       # Number of float alu accesses
system.cpu.num_fp_insts                             0                       # number of float instructions
system.cpu.num_fp_register_reads                    0                       # number of times the floating registers were read
system.cpu.num_fp_register_writes                   0                       # number of times the floating registers were written
system.cpu.num_func_calls                           0                       # number of times a function call or return occured
system.cpu.num_idle_cycles                          0                       # Number of idle cycles
system.cpu.num_int_alu_accesses                     0                       # Number of integer alu accesses
system.cpu.num_int_insts                            0                       # number of integer instructions
system.cpu.num_int_register_reads                   0                       # number of times the integer registers were read
system.cpu.num_int_register_writes                  0                       # number of times the integer registers were written
system.cpu.num_load_insts                           0                       # Number of load instructions
system.cpu.num_mem_refs                             0                       # number of memory refs
system.cpu.num_store_insts                          0                       # Number of store instructions
system.cpu.num_vec_alu_accesses                     0                       # Number of vector alu accesses
system.cpu.num_vec_insts                            0                       # number of vector instructions
system.cpu.num_vec_register_reads                   0                       # number of times the vector registers were read
system.cpu.num_vec_register_writes                  0                       # number of times the vector registers were written
system.cpu.op_class::No_OpClass                     0                       # Class of executed instruction
system.cpu.op_class::IntAlu                         0                       # Class of executed instruction
system.cpu.op_class::IntMult                        0                       # Class of executed instruction
system.cpu.op_class::IntDiv                         0                       # Class of executed instruction
system.cpu.op_class::FloatAdd                       0                       # Class of executed instruction
system.cpu.op_class::FloatCmp                       0                       # Class of executed instruction
system.cpu.op_class::FloatCvt                       0                       # Class of executed instruction
system.cpu.op_class::FloatMult                      0                       # Class of executed instruction
system.cpu.op_class::FloatMultAcc                   0                       # Class of executed instruction
system.cpu.op_class::FloatDiv                       0                       # Class of executed instruction
system.cpu.op_class::FloatMisc                      0                       # Class of executed instruction
system.cpu.op_class::FloatSqrt                      0                       # Class of executed instruction
system.cpu.op_class::SimdAdd                        0                       # Class of executed instruction
system.cpu.op_class::SimdAddAcc                     0                       # Class of executed instruction
system.cpu.op_class::SimdAlu                        0                       # Class of executed instruction
system.cpu.op_class::SimdCmp                        0                       # Class of executed instruction
system.cpu.op_class::SimdCvt                        0                       # Class of executed instruction
system.cpu.op_class::SimdMisc                       0                       # Class of executed instruction
system.cpu.op_class::SimdMult                       0                       # Class of executed instruction
system.cpu.op_class::SimdMultAcc                    0                       # Class of executed instruction
system.cpu.op_class::SimdShift                      0                       # Class of executed instruction
system.cpu.op_class::SimdShiftAcc                   0                       # Class of executed instruction
system.cpu.op_class::SimdDiv                        0                       # Class of executed instruction
system.cpu.op_class::SimdSqrt                       0                       # Class of executed instruction
system.cpu.op_class::SimdFloatAdd                   0                       # Class of executed instruction
system.cpu.op_class::SimdFloatAlu                   0                       # Class of executed instruction
system.cpu.op_class::SimdFloatCmp                   0                       # Class of executed instruction
system.cpu.op_class::SimdFloatCvt                   0                       # Class of executed instruction
system.cpu.op_class::SimdFloatDiv                   0                       # Class of executed instruction
system.cpu.op_class::SimdFloatMisc                  0                       # Class of executed instruction
system.cpu.op_class::SimdFloatMult                  0                       # Class of executed instruction
system.cpu.op_class::SimdFloatMultAcc               0                       # Class of executed instruction
system.cpu.op_class::SimdFloatSqrt                  0                       # Class of executed instruction
system.cpu.op_class::SimdReduceAdd                  0                       # Class of executed instruction
system.cpu.op_class::SimdReduceAlu                  0                       # Class of executed instruction
system.cpu.op_class::SimdReduceCmp                  0                       # Class of executed instruction
system.cpu.op_class::SimdFloatReduceAdd             0                       # Class of executed instruction
system.cpu.op_class::SimdFloatReduceCmp             0                       # Class of executed instruction
system.cpu.op_class::SimdAes                        0                       # Class of executed instruction
system.cpu.op_class::SimdAesMix                     0                       # Class of executed instruction
system.cpu.op_class::SimdSha1Hash                   0                       # Class of executed instruction
system.cpu.op_class::SimdSha1Hash2                  0                       # Class of executed instruction
system.cpu.op_class::SimdSha256Hash                 0                       # Class of executed instruction
system.cpu.op_class::SimdSha256Hash2                0                       # Class of executed instruction
system.cpu.op_class::SimdShaSigma2                  0                       # Class of executed instruction
system.cpu.op_class::SimdShaSigma3                  0                       # Class of executed instruction
system.cpu.op_class::SimdPredAlu                    0                       # Class of executed instruction
system.cpu.op_class::MemRead                        0                       # Class of executed instruction
system.cpu.op_class::MemWrite                       0                       # Class of executed instruction
system.cpu.op_class::FloatMemRead                   0                       # Class of executed instruction
system.cpu.op_class::FloatMemWrite                  0                       # Class of executed instruction
system.cpu.op_class::IprAccess                      0                       # Class of executed instruction
system.cpu.op_class::InstPrefetch                   0                       # Class of executed instruction
system.cpu.op_class::total                          0                       # Class of executed instruction
system.cpu.workload.numSyscalls                     0                       # Number of system calls
system.membus.snoop_filter.hit_multi_requests            0                       # Number of requests hitting in the snoop filter with multiple (>1) holders of the requested data.
system.membus.snoop_filter.hit_multi_snoops            0                       # Number of snoops hitting in the snoop filter with multiple (>1) holders of the requested data.
system.membus.snoop_filter.hit_single_requests        86598                       # Number of requests hitting in the snoop filter with a single holder of the requested data.
system.membus.snoop_filter.hit_single_snoops            0                       # Number of snoops hitting in the snoop filter with a single holder of the requested data.
system.membus.snoop_filter.tot_requests        173303                       # Total number of requests made to the snoop filter.
system.membus.snoop_filter.tot_snoops               0                       # Total number of snoops made to the snoop filter.
system.switch_cpus.committedInsts                   0                       # Number of instructions committed
system.switch_cpus.committedOps                     0                       # Number of ops (including micro ops) committed
system.switch_cpus.dtb.rdAccesses                   0                       # TLB accesses on read requests
system.switch_cpus.dtb.rdMisses                     0                       # TLB misses on read requests
system.switch_cpus.dtb.wrAccesses                   0                       # TLB accesses on write requests
system.switch_cpus.dtb.wrMisses                     0                       # TLB misses on write requests
system.switch_cpus.idle_fraction                    0                       # Percentage of idle cycles
system.switch_cpus.itb.rdAccesses                   0                       # TLB accesses on read requests
system.switch_cpus.itb.rdMisses                     0                       # TLB misses on read requests
system.switch_cpus.itb.wrAccesses                   0                       # TLB accesses on write requests
system.switch_cpus.itb.wrMisses                     0                       # TLB misses on write requests
system.switch_cpus.not_idle_fraction                1                       # Percentage of non-idle cycles
system.switch_cpus.numCycles                        0                       # number of cpu cycles simulated
system.switch_cpus.numWorkItemsCompleted            0                       # number of work items this cpu completed
system.switch_cpus.numWorkItemsStarted              0                       # number of work items this cpu started
system.switch_cpus.num_busy_cycles                  0                       # Number of busy cycles
system.switch_cpus.num_conditional_control_insts            0                       # number of instructions that are conditional controls
system.switch_cpus.num_fp_alu_accesses              0                       # Number of float alu accesses
system.switch_cpus.num_fp_insts                     0                       # number of float instructions
system.switch_cpus.num_fp_register_reads            0                       # number of times the floating registers were read
system.switch_cpus.num_fp_register_writes            0                       # number of times the floating registers were written
system.switch_cpus.num_func_calls                   0                       # number of times a function call or return occured
system.switch_cpus.num_idle_cycles                  0                       # Number of idle cycles
system.switch_cpus.num_int_alu_accesses             0                       # Number of integer alu accesses
system.switch_cpus.num_int_insts                    0                       # number of integer instructions
system.switch_cpus.num_int_register_reads            0                       # number of times the integer registers were read
system.switch_cpus.num_int_register_writes            0                       # number of times the integer registers were written
system.switch_cpus.num_load_insts                   0                       # Number of load instructions
system.switch_cpus.num_mem_refs                     0                       # number of memory refs
system.switch_cpus.num_store_insts                  0                       # Number of store instructions
system.switch_cpus.num_vec_alu_accesses             0                       # Number of vector alu accesses
system.switch_cpus.num_vec_insts                    0                       # number of vector instructions
system.switch_cpus.num_vec_register_reads            0                       # number of times the vector registers were read
system.switch_cpus.num_vec_register_writes            0                       # number of times the vector registers were written
system.switch_cpus.op_class::No_OpClass             0                       # Class of executed instruction
system.switch_cpus.op_class::IntAlu                 0                       # Class of executed instruction
system.switch_cpus.op_class::IntMult                0                       # Class of executed instruction
system.switch_cpus.op_class::IntDiv                 0                       # Class of executed instruction
system.switch_cpus.op_class::FloatAdd               0                       # Class of executed instruction
system.switch_cpus.op_class::FloatCmp               0                       # Class of executed instruction
system.switch_cpus.op_class::FloatCvt               0                       # Class of executed instruction
system.switch_cpus.op_class::FloatMult              0                       # Class of executed instruction
system.switch_cpus.op_class::FloatMultAcc            0                       # Class of executed instruction
system.switch_cpus.op_class::FloatDiv               0                       # Class of executed instruction
system.switch_cpus.op_class::FloatMisc              0                       # Class of executed instruction
system.switch_cpus.op_class::FloatSqrt              0                       # Class of executed instruction
system.switch_cpus.op_class::SimdAdd                0                       # Class of executed instruction
system.switch_cpus.op_class::SimdAddAcc             0                       # Class of executed instruction
system.switch_cpus.op_class::SimdAlu                0                       # Class of executed instruction
system.switch_cpus.op_class::SimdCmp                0                       # Class of executed instruction
system.switch_cpus.op_class::SimdCvt                0                       # Class of executed instruction
system.switch_cpus.op_class::SimdMisc               0                       # Class of executed instruction
system.switch_cpus.op_class::SimdMult               0                       # Class of executed instruction
system.switch_cpus.op_class::SimdMultAcc            0                       # Class of executed instruction
system.switch_cpus.op_class::SimdShift              0                       # Class of executed instruction
system.switch_cpus.op_class::SimdShiftAcc            0                       # Class of executed instruction
system.switch_cpus.op_class::SimdDiv                0                       # Class of executed instruction
system.switch_cpus.op_class::SimdSqrt               0                       # Class of executed instruction
system.switch_cpus.op_class::SimdFloatAdd            0                       # Class of executed instruction
system.switch_cpus.op_class::SimdFloatAlu            0                       # Class of executed instruction
system.switch_cpus.op_class::SimdFloatCmp            0                       # Class of executed instruction
system.switch_cpus.op_class::SimdFloatCvt            0                       # Class of executed instruction
system.switch_cpus.op_class::SimdFloatDiv            0                       # Class of executed instruction
system.switch_cpus.op_class::SimdFloatMisc            0                       # Class of executed instruction
system.switch_cpus.op_class::SimdFloatMult            0                       # Class of executed instruction
system.switch_cpus.op_class::SimdFloatMultAcc            0                       # Class of executed instruction
system.switch_cpus.op_class::SimdFloatSqrt            0                       # Class of executed instruction
system.switch_cpus.op_class::SimdReduceAdd            0                       # Class of executed instruction
system.switch_cpus.op_class::SimdReduceAlu            0                       # Class of executed instruction
system.switch_cpus.op_class::SimdReduceCmp            0                       # Class of executed instruction
system.switch_cpus.op_class::SimdFloatReduceAdd            0                       # Class of executed instruction
system.switch_cpus.op_class::SimdFloatReduceCmp            0                       # Class of executed instruction
system.switch_cpus.op_class::SimdAes                0                       # Class of executed instruction
system.switch_cpus.op_class::SimdAesMix             0                       # Class of executed instruction
system.switch_cpus.op_class::SimdSha1Hash            0                       # Class of executed instruction
system.switch_cpus.op_class::SimdSha1Hash2            0                       # Class of executed instruction
system.switch_cpus.op_class::SimdSha256Hash            0                       # Class of executed instruction
system.switch_cpus.op_class::SimdSha256Hash2            0                       # Class of executed instruction
system.switch_cpus.op_class::SimdShaSigma2            0                       # Class of executed instruction
system.switch_cpus.op_class::SimdShaSigma3            0                       # Class of executed instruction
system.switch_cpus.op_class::SimdPredAlu            0                       # Class of executed instruction
system.switch_cpus.op_class::MemRead                0                       # Class of executed instruction
system.switch_cpus.op_class::MemWrite               0                       # Class of executed instruction
system.switch_cpus.op_class::FloatMemRead            0                       # Class of executed instruction
system.switch_cpus.op_class::FloatMemWrite            0                       # Class of executed instruction
system.switch_cpus.op_class::IprAccess              0                       # Class of executed instruction
system.switch_cpus.op_class::InstPrefetch            0                       # Class of executed instruction
system.switch_cpus.op_class::total                  0                       # Class of executed instruction
system.switch_cpus_1.branchPred.BTBCorrect            0                       # Number of correct BTB predictions (this stat may not work properly.
system.switch_cpus_1.branchPred.BTBHitPct          nan                       # BTB Hit Percentage
system.switch_cpus_1.branchPred.BTBHits             0                       # Number of BTB hits
system.switch_cpus_1.branchPred.BTBLookups            0                       # Number of BTB lookups
system.switch_cpus_1.branchPred.RASInCorrect            1                       # Number of incorrect RAS predictions.
system.switch_cpus_1.branchPred.condIncorrect        68929                       # Number of conditional branches incorrect
system.switch_cpus_1.branchPred.condPredicted     12493482                       # Number of conditional branches predicted
system.switch_cpus_1.branchPred.indirectHits      8193039                       # Number of indirect target hits.
system.switch_cpus_1.branchPred.indirectLookups      8223227                       # Number of indirect predictor lookups.
system.switch_cpus_1.branchPred.indirectMisses        30188                       # Number of indirect misses.
system.switch_cpus_1.branchPred.lookups      12652043                       # Number of BP lookups
system.switch_cpus_1.branchPred.usedRAS         82431                       # Number of times the RAS was used to get a target.
system.switch_cpus_1.branchPredindirectMispredicted         6656                       # Number of mispredicted indirect branches.
system.switch_cpus_1.cc_regfile_reads       402614376                       # number of cc regfile reads
system.switch_cpus_1.cc_regfile_writes      200086706                       # number of cc regfile writes
system.switch_cpus_1.commit.amos                    0                       # Number of atomic instructions committed
system.switch_cpus_1.commit.branchMispredicts        68938                       # The number of times a branch was mispredicted
system.switch_cpus_1.commit.branches         12093471                       # Number of branches committed
system.switch_cpus_1.commit.bw_lim_events     27173973                       # number cycles where commit BW limit reached
system.switch_cpus_1.commit.commitSquashedInsts      3609304                       # The number of squashed insts skipped by commit
system.switch_cpus_1.commit.committedInsts    250000000                       # Number of instructions committed
system.switch_cpus_1.commit.committedOps    378875931                       # Number of ops (including micro ops) committed
system.switch_cpus_1.commit.committed_per_cycle::samples    169614327                       # Number of insts commited each cycle
system.switch_cpus_1.commit.committed_per_cycle::mean     2.233750                       # Number of insts commited each cycle
system.switch_cpus_1.commit.committed_per_cycle::stdev     2.947069                       # Number of insts commited each cycle
system.switch_cpus_1.commit.committed_per_cycle::underflows            0      0.00%      0.00% # Number of insts commited each cycle
system.switch_cpus_1.commit.committed_per_cycle::0     70320295     41.46%     41.46% # Number of insts commited each cycle
system.switch_cpus_1.commit.committed_per_cycle::1     42192639     24.88%     66.33% # Number of insts commited each cycle
system.switch_cpus_1.commit.committed_per_cycle::2      2447233      1.44%     67.78% # Number of insts commited each cycle
system.switch_cpus_1.commit.committed_per_cycle::3     11773996      6.94%     74.72% # Number of insts commited each cycle
system.switch_cpus_1.commit.committed_per_cycle::4      8501213      5.01%     79.73% # Number of insts commited each cycle
system.switch_cpus_1.commit.committed_per_cycle::5      1523319      0.90%     80.63% # Number of insts commited each cycle
system.switch_cpus_1.commit.committed_per_cycle::6      2318006      1.37%     82.00% # Number of insts commited each cycle
system.switch_cpus_1.commit.committed_per_cycle::7      3363653      1.98%     83.98% # Number of insts commited each cycle
system.switch_cpus_1.commit.committed_per_cycle::8     27173973     16.02%    100.00% # Number of insts commited each cycle
system.switch_cpus_1.commit.committed_per_cycle::overflows            0      0.00%    100.00% # Number of insts commited each cycle
system.switch_cpus_1.commit.committed_per_cycle::min_value            0                       # Number of insts commited each cycle
system.switch_cpus_1.commit.committed_per_cycle::max_value            8                       # Number of insts commited each cycle
system.switch_cpus_1.commit.committed_per_cycle::total    169614327                       # Number of insts commited each cycle
system.switch_cpus_1.commit.fp_insts           936085                       # Number of committed floating point instructions.
system.switch_cpus_1.commit.function_calls        63846                       # Number of function calls committed.
system.switch_cpus_1.commit.int_insts       378159233                       # Number of committed integer instructions.
system.switch_cpus_1.commit.loads           107274542                       # Number of loads committed
system.switch_cpus_1.commit.membars                 0                       # Number of memory barriers committed
system.switch_cpus_1.commit.op_class_0::No_OpClass        75958      0.02%      0.02% # Class of committed instruction
system.switch_cpus_1.commit.op_class_0::IntAlu    232487732     61.36%     61.38% # Class of committed instruction
system.switch_cpus_1.commit.op_class_0::IntMult       101440      0.03%     61.41% # Class of committed instruction
system.switch_cpus_1.commit.op_class_0::IntDiv            0      0.00%     61.41% # Class of committed instruction
system.switch_cpus_1.commit.op_class_0::FloatAdd        38646      0.01%     61.42% # Class of committed instruction
system.switch_cpus_1.commit.op_class_0::FloatCmp            0      0.00%     61.42% # Class of committed instruction
system.switch_cpus_1.commit.op_class_0::FloatCvt            0      0.00%     61.42% # Class of committed instruction
system.switch_cpus_1.commit.op_class_0::FloatMult            0      0.00%     61.42% # Class of committed instruction
system.switch_cpus_1.commit.op_class_0::FloatMultAcc            0      0.00%     61.42% # Class of committed instruction
system.switch_cpus_1.commit.op_class_0::FloatDiv            0      0.00%     61.42% # Class of committed instruction
system.switch_cpus_1.commit.op_class_0::FloatMisc            0      0.00%     61.42% # Class of committed instruction
system.switch_cpus_1.commit.op_class_0::FloatSqrt            0      0.00%     61.42% # Class of committed instruction
system.switch_cpus_1.commit.op_class_0::SimdAdd            0      0.00%     61.42% # Class of committed instruction
system.switch_cpus_1.commit.op_class_0::SimdAddAcc            0      0.00%     61.42% # Class of committed instruction
system.switch_cpus_1.commit.op_class_0::SimdAlu        50612      0.01%     61.43% # Class of committed instruction
system.switch_cpus_1.commit.op_class_0::SimdCmp            0      0.00%     61.43% # Class of committed instruction
system.switch_cpus_1.commit.op_class_0::SimdCvt        58968      0.02%     61.45% # Class of committed instruction
system.switch_cpus_1.commit.op_class_0::SimdMisc       173446      0.05%     61.49% # Class of committed instruction
system.switch_cpus_1.commit.op_class_0::SimdMult            0      0.00%     61.49% # Class of committed instruction
system.switch_cpus_1.commit.op_class_0::SimdMultAcc            0      0.00%     61.49% # Class of committed instruction
system.switch_cpus_1.commit.op_class_0::SimdShift            0      0.00%     61.49% # Class of committed instruction
system.switch_cpus_1.commit.op_class_0::SimdShiftAcc            0      0.00%     61.49% # Class of committed instruction
system.switch_cpus_1.commit.op_class_0::SimdDiv            0      0.00%     61.49% # Class of committed instruction
system.switch_cpus_1.commit.op_class_0::SimdSqrt            0      0.00%     61.49% # Class of committed instruction
system.switch_cpus_1.commit.op_class_0::SimdFloatAdd       129236      0.03%     61.53% # Class of committed instruction
system.switch_cpus_1.commit.op_class_0::SimdFloatAlu            0      0.00%     61.53% # Class of committed instruction
system.switch_cpus_1.commit.op_class_0::SimdFloatCmp           37      0.00%     61.53% # Class of committed instruction
system.switch_cpus_1.commit.op_class_0::SimdFloatCvt       193257      0.05%     61.58% # Class of committed instruction
system.switch_cpus_1.commit.op_class_0::SimdFloatDiv        25397      0.01%     61.59% # Class of committed instruction
system.switch_cpus_1.commit.op_class_0::SimdFloatMisc            0      0.00%     61.59% # Class of committed instruction
system.switch_cpus_1.commit.op_class_0::SimdFloatMult        13100      0.00%     61.59% # Class of committed instruction
system.switch_cpus_1.commit.op_class_0::SimdFloatMultAcc            0      0.00%     61.59% # Class of committed instruction
system.switch_cpus_1.commit.op_class_0::SimdFloatSqrt            0      0.00%     61.59% # Class of committed instruction
system.switch_cpus_1.commit.op_class_0::SimdReduceAdd            0      0.00%     61.59% # Class of committed instruction
system.switch_cpus_1.commit.op_class_0::SimdReduceAlu            0      0.00%     61.59% # Class of committed instruction
system.switch_cpus_1.commit.op_class_0::SimdReduceCmp            0      0.00%     61.59% # Class of committed instruction
system.switch_cpus_1.commit.op_class_0::SimdFloatReduceAdd            0      0.00%     61.59% # Class of committed instruction
system.switch_cpus_1.commit.op_class_0::SimdFloatReduceCmp            0      0.00%     61.59% # Class of committed instruction
system.switch_cpus_1.commit.op_class_0::SimdAes            0      0.00%     61.59% # Class of committed instruction
system.switch_cpus_1.commit.op_class_0::SimdAesMix            0      0.00%     61.59% # Class of committed instruction
system.switch_cpus_1.commit.op_class_0::SimdSha1Hash            0      0.00%     61.59% # Class of committed instruction
system.switch_cpus_1.commit.op_class_0::SimdSha1Hash2            0      0.00%     61.59% # Class of committed instruction
system.switch_cpus_1.commit.op_class_0::SimdSha256Hash            0      0.00%     61.59% # Class of committed instruction
system.switch_cpus_1.commit.op_class_0::SimdSha256Hash2            0      0.00%     61.59% # Class of committed instruction
system.switch_cpus_1.commit.op_class_0::SimdShaSigma2            0      0.00%     61.59% # Class of committed instruction
system.switch_cpus_1.commit.op_class_0::SimdShaSigma3            0      0.00%     61.59% # Class of committed instruction
system.switch_cpus_1.commit.op_class_0::SimdPredAlu            0      0.00%     61.59% # Class of committed instruction
system.switch_cpus_1.commit.op_class_0::MemRead    107077157     28.26%     89.85% # Class of committed instruction
system.switch_cpus_1.commit.op_class_0::MemWrite     38252946     10.10%     99.95% # Class of committed instruction
system.switch_cpus_1.commit.op_class_0::FloatMemRead       197385      0.05%    100.00% # Class of committed instruction
system.switch_cpus_1.commit.op_class_0::FloatMemWrite          614      0.00%    100.00% # Class of committed instruction
system.switch_cpus_1.commit.op_class_0::IprAccess            0      0.00%    100.00% # Class of committed instruction
system.switch_cpus_1.commit.op_class_0::InstPrefetch            0      0.00%    100.00% # Class of committed instruction
system.switch_cpus_1.commit.op_class_0::total    378875931                       # Class of committed instruction
system.switch_cpus_1.commit.refs            145528102                       # Number of memory references committed
system.switch_cpus_1.commit.swp_count               0                       # Number of s/w prefetches committed
system.switch_cpus_1.commit.vec_insts               0                       # Number of committed Vector instructions.
system.switch_cpus_1.committedInsts         250000000                       # Number of Instructions Simulated
system.switch_cpus_1.committedOps           378875931                       # Number of Ops (including micro ops) Simulated
system.switch_cpus_1.cpi                     0.680513                       # CPI: Cycles Per Instruction
system.switch_cpus_1.cpi_total               0.680513                       # CPI: Total CPI of All Threads
system.switch_cpus_1.decode.BlockedCycles    109760609                       # Number of cycles decode is blocked
system.switch_cpus_1.decode.DecodedInsts    383514389                       # Number of instructions handled by decode
system.switch_cpus_1.decode.IdleCycles       10376471                       # Number of cycles decode is idle
system.switch_cpus_1.decode.RunCycles        32559603                       # Number of cycles decode is running
system.switch_cpus_1.decode.SquashCycles        72194                       # Number of cycles decode is squashing
system.switch_cpus_1.decode.UnblockCycles     17358269                       # Number of cycles decode is unblocking
system.switch_cpus_1.dtb.rdAccesses         107799602                       # TLB accesses on read requests
system.switch_cpus_1.dtb.rdMisses                1378                       # TLB misses on read requests
system.switch_cpus_1.dtb.wrAccesses          38316233                       # TLB accesses on write requests
system.switch_cpus_1.dtb.wrMisses               11460                       # TLB misses on write requests
system.switch_cpus_1.fetch.Branches          12652043                       # Number of branches that fetch encountered
system.switch_cpus_1.fetch.CacheLines        19543886                       # Number of cache lines fetched
system.switch_cpus_1.fetch.Cycles           150477459                       # Number of cycles fetch has run and was not squashing or blocked
system.switch_cpus_1.fetch.IcacheSquashes         9555                       # Number of outstanding Icache misses that were squashed
system.switch_cpus_1.fetch.IcacheWaitRetryStallCycles           10                       # Number of stall cycles due to full MSHR
system.switch_cpus_1.fetch.Insts            253555356                       # Number of instructions fetch has processed
system.switch_cpus_1.fetch.MiscStallCycles           88                       # Number of cycles fetch has spent waiting on interrupts, or bad addresses, or out of MSHRs
system.switch_cpus_1.fetch.PendingTrapStallCycles           56                       # Number of stall cycles due to pending traps
system.switch_cpus_1.fetch.SquashCycles        144388                       # Number of cycles fetch has spent squashing
system.switch_cpus_1.fetch.branchRate        0.074368                       # Number of branch fetches per cycle
system.switch_cpus_1.fetch.icacheStallCycles     19577350                       # Number of cycles fetch is stalled on an Icache miss
system.switch_cpus_1.fetch.predictedBranches      8275470                       # Number of branches that fetch has predicted taken
system.switch_cpus_1.fetch.rate              1.490378                       # Number of inst fetches per cycle
system.switch_cpus_1.fetch.rateDist::samples    170127157                       # Number of instructions fetched each cycle (Total)
system.switch_cpus_1.fetch.rateDist::mean     2.263898                       # Number of instructions fetched each cycle (Total)
system.switch_cpus_1.fetch.rateDist::stdev     3.314476                       # Number of instructions fetched each cycle (Total)
system.switch_cpus_1.fetch.rateDist::underflows            0      0.00%      0.00% # Number of instructions fetched each cycle (Total)
system.switch_cpus_1.fetch.rateDist::0      107812958     63.37%     63.37% # Number of instructions fetched each cycle (Total)
system.switch_cpus_1.fetch.rateDist::1        4239428      2.49%     65.86% # Number of instructions fetched each cycle (Total)
system.switch_cpus_1.fetch.rateDist::2        2371146      1.39%     67.26% # Number of instructions fetched each cycle (Total)
system.switch_cpus_1.fetch.rateDist::3        4914953      2.89%     70.15% # Number of instructions fetched each cycle (Total)
system.switch_cpus_1.fetch.rateDist::4        7923995      4.66%     74.80% # Number of instructions fetched each cycle (Total)
system.switch_cpus_1.fetch.rateDist::5        1193037      0.70%     75.51% # Number of instructions fetched each cycle (Total)
system.switch_cpus_1.fetch.rateDist::6        1758526      1.03%     76.54% # Number of instructions fetched each cycle (Total)
system.switch_cpus_1.fetch.rateDist::7        6093255      3.58%     80.12% # Number of instructions fetched each cycle (Total)
system.switch_cpus_1.fetch.rateDist::8       33819859     19.88%    100.00% # Number of instructions fetched each cycle (Total)
system.switch_cpus_1.fetch.rateDist::overflows            0      0.00%    100.00% # Number of instructions fetched each cycle (Total)
system.switch_cpus_1.fetch.rateDist::min_value            0                       # Number of instructions fetched each cycle (Total)
system.switch_cpus_1.fetch.rateDist::max_value            8                       # Number of instructions fetched each cycle (Total)
system.switch_cpus_1.fetch.rateDist::total    170127157                       # Number of instructions fetched each cycle (Total)
system.switch_cpus_1.fp_regfile_reads         1890952                       # number of floating regfile reads
system.switch_cpus_1.fp_regfile_writes         947804                       # number of floating regfile writes
system.switch_cpus_1.idleCycles                  1031                       # Total number of cycles that the CPU has spent unscheduled due to idling
system.switch_cpus_1.iew.branchMispredicts        88417                       # Number of branch mispredicts detected at execute
system.switch_cpus_1.iew.exec_branches       12196543                       # Number of branches executed
system.switch_cpus_1.iew.exec_nop                   0                       # number of nop insts executed
system.switch_cpus_1.iew.exec_rate           2.240057                       # Inst execution rate
system.switch_cpus_1.iew.exec_refs          146159562                       # number of memory reference insts executed
system.switch_cpus_1.iew.exec_stores         38316216                       # Number of stores executed
system.switch_cpus_1.iew.exec_swp                   0                       # number of swp insts executed
system.switch_cpus_1.iew.iewBlockCycles        813828                       # Number of cycles IEW is blocking
system.switch_cpus_1.iew.iewDispLoadInsts    107924003                       # Number of dispatched load instructions
system.switch_cpus_1.iew.iewDispNonSpecInsts          420                       # Number of dispatched non-speculative instructions
system.switch_cpus_1.iew.iewDispSquashedInsts          626                       # Number of squashed instructions skipped by dispatch
system.switch_cpus_1.iew.iewDispStoreInsts     38393683                       # Number of dispatched store instructions
system.switch_cpus_1.iew.iewDispatchedInsts    382485096                       # Number of instructions dispatched to IQ
system.switch_cpus_1.iew.iewExecLoadInsts    107843346                       # Number of load instructions executed
system.switch_cpus_1.iew.iewExecSquashedInsts       137334                       # Number of squashed instructions skipped in execute
system.switch_cpus_1.iew.iewExecutedInsts    381096776                       # Number of executed instructions
system.switch_cpus_1.iew.iewIQFullEvents        21117                       # Number of times the IQ has become full, causing a stall
system.switch_cpus_1.iew.iewIdleCycles              0                       # Number of cycles IEW is idle
system.switch_cpus_1.iew.iewLSQFullEvents     16651584                       # Number of times the LSQ has become full, causing a stall
system.switch_cpus_1.iew.iewSquashCycles        72194                       # Number of cycles IEW is squashing
system.switch_cpus_1.iew.iewUnblockCycles     16692151                       # Number of cycles IEW is unblocking
system.switch_cpus_1.iew.lsq.thread0.blockedLoads            0                       # Number of blocked loads due to partial load-store forwarding
system.switch_cpus_1.iew.lsq.thread0.cacheBlocked        11010                       # Number of times an access to memory failed due to the cache being blocked
system.switch_cpus_1.iew.lsq.thread0.forwLoads      7022889                       # Number of loads that had data forwarded from stores
system.switch_cpus_1.iew.lsq.thread0.ignoredResponses         1545                       # Number of memory responses ignored because the instruction is squashed
system.switch_cpus_1.iew.lsq.thread0.invAddrLoads            0                       # Number of loads ignored due to an invalid address
system.switch_cpus_1.iew.lsq.thread0.invAddrSwpfs            0                       # Number of software prefetches ignored due to an invalid address
system.switch_cpus_1.iew.lsq.thread0.memOrderViolation         3557                       # Number of memory ordering violations
system.switch_cpus_1.iew.lsq.thread0.rescheduledLoads           25                       # Number of loads that were rescheduled
system.switch_cpus_1.iew.lsq.thread0.squashedLoads       649436                       # Number of loads squashed
system.switch_cpus_1.iew.lsq.thread0.squashedStores       140114                       # Number of stores squashed
system.switch_cpus_1.iew.memOrderViolationEvents         3557                       # Number of memory order violations
system.switch_cpus_1.iew.predictedNotTakenIncorrect        57068                       # Number of branches that were predicted not taken incorrectly
system.switch_cpus_1.iew.predictedTakenIncorrect        31349                       # Number of branches that were predicted taken incorrectly
system.switch_cpus_1.iew.wb_consumers       640220328                       # num instructions consuming a value
system.switch_cpus_1.iew.wb_count           380908645                       # cumulative count of insts written-back
system.switch_cpus_1.iew.wb_fanout           0.497819                       # average fanout of values written-back
system.switch_cpus_1.iew.wb_producers       318713641                       # num instructions producing a value
system.switch_cpus_1.iew.wb_rate             2.238951                       # insts written-back per cycle
system.switch_cpus_1.iew.wb_sent            380955917                       # cumulative count of insts sent to commit
system.switch_cpus_1.int_regfile_reads      773995440                       # number of integer regfile reads
system.switch_cpus_1.int_regfile_writes     329384369                       # number of integer regfile writes
system.switch_cpus_1.ipc                     1.469480                       # IPC: Instructions Per Cycle
system.switch_cpus_1.ipc_total               1.469480                       # IPC: Total IPC of All Threads
system.switch_cpus_1.iq.FU_type_0::No_OpClass        90207      0.02%      0.02% # Type of FU issued
system.switch_cpus_1.iq.FU_type_0::IntAlu    233975912     61.37%     61.40% # Type of FU issued
system.switch_cpus_1.iq.FU_type_0::IntMult       103449      0.03%     61.42% # Type of FU issued
system.switch_cpus_1.iq.FU_type_0::IntDiv            0      0.00%     61.42% # Type of FU issued
system.switch_cpus_1.iq.FU_type_0::FloatAdd        49881      0.01%     61.44% # Type of FU issued
system.switch_cpus_1.iq.FU_type_0::FloatCmp            0      0.00%     61.44% # Type of FU issued
system.switch_cpus_1.iq.FU_type_0::FloatCvt          125      0.00%     61.44% # Type of FU issued
system.switch_cpus_1.iq.FU_type_0::FloatMult            0      0.00%     61.44% # Type of FU issued
system.switch_cpus_1.iq.FU_type_0::FloatMultAcc            0      0.00%     61.44% # Type of FU issued
system.switch_cpus_1.iq.FU_type_0::FloatDiv            0      0.00%     61.44% # Type of FU issued
system.switch_cpus_1.iq.FU_type_0::FloatMisc            0      0.00%     61.44% # Type of FU issued
system.switch_cpus_1.iq.FU_type_0::FloatSqrt            0      0.00%     61.44% # Type of FU issued
system.switch_cpus_1.iq.FU_type_0::SimdAdd            0      0.00%     61.44% # Type of FU issued
system.switch_cpus_1.iq.FU_type_0::SimdAddAcc            0      0.00%     61.44% # Type of FU issued
system.switch_cpus_1.iq.FU_type_0::SimdAlu        66445      0.02%     61.45% # Type of FU issued
system.switch_cpus_1.iq.FU_type_0::SimdCmp            0      0.00%     61.45% # Type of FU issued
system.switch_cpus_1.iq.FU_type_0::SimdCvt        61686      0.02%     61.47% # Type of FU issued
system.switch_cpus_1.iq.FU_type_0::SimdMisc       183165      0.05%     61.52% # Type of FU issued
system.switch_cpus_1.iq.FU_type_0::SimdMult            0      0.00%     61.52% # Type of FU issued
system.switch_cpus_1.iq.FU_type_0::SimdMultAcc            0      0.00%     61.52% # Type of FU issued
system.switch_cpus_1.iq.FU_type_0::SimdShift            0      0.00%     61.52% # Type of FU issued
system.switch_cpus_1.iq.FU_type_0::SimdShiftAcc            0      0.00%     61.52% # Type of FU issued
system.switch_cpus_1.iq.FU_type_0::SimdDiv            0      0.00%     61.52% # Type of FU issued
system.switch_cpus_1.iq.FU_type_0::SimdSqrt            0      0.00%     61.52% # Type of FU issued
system.switch_cpus_1.iq.FU_type_0::SimdFloatAdd       199295      0.05%     61.57% # Type of FU issued
system.switch_cpus_1.iq.FU_type_0::SimdFloatAlu            0      0.00%     61.57% # Type of FU issued
system.switch_cpus_1.iq.FU_type_0::SimdFloatCmp           40      0.00%     61.57% # Type of FU issued
system.switch_cpus_1.iq.FU_type_0::SimdFloatCvt       227311      0.06%     61.63% # Type of FU issued
system.switch_cpus_1.iq.FU_type_0::SimdFloatDiv        32911      0.01%     61.64% # Type of FU issued
system.switch_cpus_1.iq.FU_type_0::SimdFloatMisc            0      0.00%     61.64% # Type of FU issued
system.switch_cpus_1.iq.FU_type_0::SimdFloatMult        15541      0.00%     61.64% # Type of FU issued
system.switch_cpus_1.iq.FU_type_0::SimdFloatMultAcc            0      0.00%     61.64% # Type of FU issued
system.switch_cpus_1.iq.FU_type_0::SimdFloatSqrt            0      0.00%     61.64% # Type of FU issued
system.switch_cpus_1.iq.FU_type_0::SimdReduceAdd            0      0.00%     61.64% # Type of FU issued
system.switch_cpus_1.iq.FU_type_0::SimdReduceAlu            0      0.00%     61.64% # Type of FU issued
system.switch_cpus_1.iq.FU_type_0::SimdReduceCmp            0      0.00%     61.64% # Type of FU issued
system.switch_cpus_1.iq.FU_type_0::SimdFloatReduceAdd            0      0.00%     61.64% # Type of FU issued
system.switch_cpus_1.iq.FU_type_0::SimdFloatReduceCmp            0      0.00%     61.64% # Type of FU issued
system.switch_cpus_1.iq.FU_type_0::SimdAes            0      0.00%     61.64% # Type of FU issued
system.switch_cpus_1.iq.FU_type_0::SimdAesMix            0      0.00%     61.64% # Type of FU issued
system.switch_cpus_1.iq.FU_type_0::SimdSha1Hash            0      0.00%     61.64% # Type of FU issued
system.switch_cpus_1.iq.FU_type_0::SimdSha1Hash2            0      0.00%     61.64% # Type of FU issued
system.switch_cpus_1.iq.FU_type_0::SimdSha256Hash            0      0.00%     61.64% # Type of FU issued
system.switch_cpus_1.iq.FU_type_0::SimdSha256Hash2            0      0.00%     61.64% # Type of FU issued
system.switch_cpus_1.iq.FU_type_0::SimdShaSigma2            0      0.00%     61.64% # Type of FU issued
system.switch_cpus_1.iq.FU_type_0::SimdShaSigma3            0      0.00%     61.64% # Type of FU issued
system.switch_cpus_1.iq.FU_type_0::SimdPredAlu            0      0.00%     61.64% # Type of FU issued
system.switch_cpus_1.iq.FU_type_0::MemRead    107606282     28.23%     89.87% # Type of FU issued
system.switch_cpus_1.iq.FU_type_0::MemWrite     38318625     10.05%     99.92% # Type of FU issued
system.switch_cpus_1.iq.FU_type_0::FloatMemRead       302229      0.08%    100.00% # Type of FU issued
system.switch_cpus_1.iq.FU_type_0::FloatMemWrite         1007      0.00%    100.00% # Type of FU issued
system.switch_cpus_1.iq.FU_type_0::IprAccess            0      0.00%    100.00% # Type of FU issued
system.switch_cpus_1.iq.FU_type_0::InstPrefetch            0      0.00%    100.00% # Type of FU issued
system.switch_cpus_1.iq.FU_type_0::total    381234111                       # Type of FU issued
system.switch_cpus_1.iq.fp_alu_accesses       1206803                       # Number of floating point alu accesses
system.switch_cpus_1.iq.fp_inst_queue_reads      2404204                       # Number of floating instruction queue reads
system.switch_cpus_1.iq.fp_inst_queue_wakeup_accesses      1170140                       # Number of floating instruction queue wakeup accesses
system.switch_cpus_1.iq.fp_inst_queue_writes      1780807                       # Number of floating instruction queue writes
system.switch_cpus_1.iq.fu_busy_cnt           1950212                       # FU busy when requested
system.switch_cpus_1.iq.fu_busy_rate         0.005116                       # FU busy rate (busy events/executed inst)
system.switch_cpus_1.iq.fu_full::No_OpClass            0      0.00%      0.00% # attempts to use FU when none available
system.switch_cpus_1.iq.fu_full::IntAlu        204099     10.47%     10.47% # attempts to use FU when none available
system.switch_cpus_1.iq.fu_full::IntMult            0      0.00%     10.47% # attempts to use FU when none available
system.switch_cpus_1.iq.fu_full::IntDiv             0      0.00%     10.47% # attempts to use FU when none available
system.switch_cpus_1.iq.fu_full::FloatAdd            0      0.00%     10.47% # attempts to use FU when none available
system.switch_cpus_1.iq.fu_full::FloatCmp            0      0.00%     10.47% # attempts to use FU when none available
system.switch_cpus_1.iq.fu_full::FloatCvt            5      0.00%     10.47% # attempts to use FU when none available
system.switch_cpus_1.iq.fu_full::FloatMult            0      0.00%     10.47% # attempts to use FU when none available
system.switch_cpus_1.iq.fu_full::FloatMultAcc            0      0.00%     10.47% # attempts to use FU when none available
system.switch_cpus_1.iq.fu_full::FloatDiv            0      0.00%     10.47% # attempts to use FU when none available
system.switch_cpus_1.iq.fu_full::FloatMisc            0      0.00%     10.47% # attempts to use FU when none available
system.switch_cpus_1.iq.fu_full::FloatSqrt            0      0.00%     10.47% # attempts to use FU when none available
system.switch_cpus_1.iq.fu_full::SimdAdd            0      0.00%     10.47% # attempts to use FU when none available
system.switch_cpus_1.iq.fu_full::SimdAddAcc            0      0.00%     10.47% # attempts to use FU when none available
system.switch_cpus_1.iq.fu_full::SimdAlu            0      0.00%     10.47% # attempts to use FU when none available
system.switch_cpus_1.iq.fu_full::SimdCmp            0      0.00%     10.47% # attempts to use FU when none available
system.switch_cpus_1.iq.fu_full::SimdCvt            0      0.00%     10.47% # attempts to use FU when none available
system.switch_cpus_1.iq.fu_full::SimdMisc            1      0.00%     10.47% # attempts to use FU when none available
system.switch_cpus_1.iq.fu_full::SimdMult            0      0.00%     10.47% # attempts to use FU when none available
system.switch_cpus_1.iq.fu_full::SimdMultAcc            0      0.00%     10.47% # attempts to use FU when none available
system.switch_cpus_1.iq.fu_full::SimdShift            0      0.00%     10.47% # attempts to use FU when none available
system.switch_cpus_1.iq.fu_full::SimdShiftAcc            0      0.00%     10.47% # attempts to use FU when none available
system.switch_cpus_1.iq.fu_full::SimdDiv            0      0.00%     10.47% # attempts to use FU when none available
system.switch_cpus_1.iq.fu_full::SimdSqrt            0      0.00%     10.47% # attempts to use FU when none available
system.switch_cpus_1.iq.fu_full::SimdFloatAdd         2872      0.15%     10.61% # attempts to use FU when none available
system.switch_cpus_1.iq.fu_full::SimdFloatAlu            0      0.00%     10.61% # attempts to use FU when none available
system.switch_cpus_1.iq.fu_full::SimdFloatCmp            0      0.00%     10.61% # attempts to use FU when none available
system.switch_cpus_1.iq.fu_full::SimdFloatCvt         6629      0.34%     10.95% # attempts to use FU when none available
system.switch_cpus_1.iq.fu_full::SimdFloatDiv            0      0.00%     10.95% # attempts to use FU when none available
system.switch_cpus_1.iq.fu_full::SimdFloatMisc            0      0.00%     10.95% # attempts to use FU when none available
system.switch_cpus_1.iq.fu_full::SimdFloatMult            0      0.00%     10.95% # attempts to use FU when none available
system.switch_cpus_1.iq.fu_full::SimdFloatMultAcc            0      0.00%     10.95% # attempts to use FU when none available
system.switch_cpus_1.iq.fu_full::SimdFloatSqrt            0      0.00%     10.95% # attempts to use FU when none available
system.switch_cpus_1.iq.fu_full::SimdReduceAdd            0      0.00%     10.95% # attempts to use FU when none available
system.switch_cpus_1.iq.fu_full::SimdReduceAlu            0      0.00%     10.95% # attempts to use FU when none available
system.switch_cpus_1.iq.fu_full::SimdReduceCmp            0      0.00%     10.95% # attempts to use FU when none available
system.switch_cpus_1.iq.fu_full::SimdFloatReduceAdd            0      0.00%     10.95% # attempts to use FU when none available
system.switch_cpus_1.iq.fu_full::SimdFloatReduceCmp            0      0.00%     10.95% # attempts to use FU when none available
system.switch_cpus_1.iq.fu_full::SimdAes            0      0.00%     10.95% # attempts to use FU when none available
system.switch_cpus_1.iq.fu_full::SimdAesMix            0      0.00%     10.95% # attempts to use FU when none available
system.switch_cpus_1.iq.fu_full::SimdSha1Hash            0      0.00%     10.95% # attempts to use FU when none available
system.switch_cpus_1.iq.fu_full::SimdSha1Hash2            0      0.00%     10.95% # attempts to use FU when none available
system.switch_cpus_1.iq.fu_full::SimdSha256Hash            0      0.00%     10.95% # attempts to use FU when none available
system.switch_cpus_1.iq.fu_full::SimdSha256Hash2            0      0.00%     10.95% # attempts to use FU when none available
system.switch_cpus_1.iq.fu_full::SimdShaSigma2            0      0.00%     10.95% # attempts to use FU when none available
system.switch_cpus_1.iq.fu_full::SimdShaSigma3            0      0.00%     10.95% # attempts to use FU when none available
system.switch_cpus_1.iq.fu_full::SimdPredAlu            0      0.00%     10.95% # attempts to use FU when none available
system.switch_cpus_1.iq.fu_full::MemRead      1734943     88.96%     99.91% # attempts to use FU when none available
system.switch_cpus_1.iq.fu_full::MemWrite         1573      0.08%    100.00% # attempts to use FU when none available
system.switch_cpus_1.iq.fu_full::FloatMemRead           75      0.00%    100.00% # attempts to use FU when none available
system.switch_cpus_1.iq.fu_full::FloatMemWrite           15      0.00%    100.00% # attempts to use FU when none available
system.switch_cpus_1.iq.fu_full::IprAccess            0      0.00%    100.00% # attempts to use FU when none available
system.switch_cpus_1.iq.fu_full::InstPrefetch            0      0.00%    100.00% # attempts to use FU when none available
system.switch_cpus_1.iq.int_alu_accesses    381887313                       # Number of integer alu accesses
system.switch_cpus_1.iq.int_inst_queue_reads    932214281                       # Number of integer instruction queue reads
system.switch_cpus_1.iq.int_inst_queue_wakeup_accesses    379738505                       # Number of integer instruction queue wakeup accesses
system.switch_cpus_1.iq.int_inst_queue_writes    384316845                       # Number of integer instruction queue writes
system.switch_cpus_1.iq.iqInstsAdded        382483851                       # Number of instructions added to the IQ (excludes non-spec)
system.switch_cpus_1.iq.iqInstsIssued       381234111                       # Number of instructions issued
system.switch_cpus_1.iq.iqNonSpecInstsAdded         1245                       # Number of non-speculative instructions added to the IQ
system.switch_cpus_1.iq.iqSquashedInstsExamined      3609084                       # Number of squashed instructions iterated over during squash; mainly for profiling
system.switch_cpus_1.iq.iqSquashedInstsIssued        72895                       # Number of squashed instructions issued
system.switch_cpus_1.iq.iqSquashedNonSpecRemoved         1245                       # Number of squashed non-spec instructions that were removed
system.switch_cpus_1.iq.iqSquashedOperandsExamined      5932345                       # Number of squashed operands that are examined and possibly removed from graph
system.switch_cpus_1.iq.issued_per_cycle::samples    170127157                       # Number of insts issued each cycle
system.switch_cpus_1.iq.issued_per_cycle::mean     2.240877                       # Number of insts issued each cycle
system.switch_cpus_1.iq.issued_per_cycle::stdev     2.170264                       # Number of insts issued each cycle
system.switch_cpus_1.iq.issued_per_cycle::underflows            0      0.00%      0.00% # Number of insts issued each cycle
system.switch_cpus_1.iq.issued_per_cycle::0     58307489     34.27%     34.27% # Number of insts issued each cycle
system.switch_cpus_1.iq.issued_per_cycle::1     15285986      8.99%     43.26% # Number of insts issued each cycle
system.switch_cpus_1.iq.issued_per_cycle::2     26312215     15.47%     58.72% # Number of insts issued each cycle
system.switch_cpus_1.iq.issued_per_cycle::3     22216677     13.06%     71.78% # Number of insts issued each cycle
system.switch_cpus_1.iq.issued_per_cycle::4     19192179     11.28%     83.06% # Number of insts issued each cycle
system.switch_cpus_1.iq.issued_per_cycle::5     12362913      7.27%     90.33% # Number of insts issued each cycle
system.switch_cpus_1.iq.issued_per_cycle::6      9400115      5.53%     95.86% # Number of insts issued each cycle
system.switch_cpus_1.iq.issued_per_cycle::7      4706971      2.77%     98.62% # Number of insts issued each cycle
system.switch_cpus_1.iq.issued_per_cycle::8      2342612      1.38%    100.00% # Number of insts issued each cycle
system.switch_cpus_1.iq.issued_per_cycle::overflows            0      0.00%    100.00% # Number of insts issued each cycle
system.switch_cpus_1.iq.issued_per_cycle::min_value            0                       # Number of insts issued each cycle
system.switch_cpus_1.iq.issued_per_cycle::max_value            8                       # Number of insts issued each cycle
system.switch_cpus_1.iq.issued_per_cycle::total    170127157                       # Number of insts issued each cycle
system.switch_cpus_1.iq.rate                 2.240864                       # Inst issue rate
system.switch_cpus_1.iq.vec_alu_accesses            0                       # Number of vector alu accesses
system.switch_cpus_1.iq.vec_inst_queue_reads            0                       # Number of vector instruction queue reads
system.switch_cpus_1.iq.vec_inst_queue_wakeup_accesses            0                       # Number of vector instruction queue wakeup accesses
system.switch_cpus_1.iq.vec_inst_queue_writes            0                       # Number of vector instruction queue writes
system.switch_cpus_1.itb.rdAccesses                 0                       # TLB accesses on read requests
system.switch_cpus_1.itb.rdMisses                   0                       # TLB misses on read requests
system.switch_cpus_1.itb.wrAccesses          19543896                       # TLB accesses on write requests
system.switch_cpus_1.itb.wrMisses                  26                       # TLB misses on write requests
system.switch_cpus_1.memDep0.conflictingLoads      5224210                       # Number of conflicting loads.
system.switch_cpus_1.memDep0.conflictingStores      6364053                       # Number of conflicting stores.
system.switch_cpus_1.memDep0.insertedLoads    107924003                       # Number of loads inserted to the mem dependence unit.
system.switch_cpus_1.memDep0.insertedStores     38393683                       # Number of stores inserted to the mem dependence unit.
system.switch_cpus_1.misc_regfile_reads     170753173                       # number of misc regfile reads
system.switch_cpus_1.numCycles              170128188                       # number of cpu cycles simulated
system.switch_cpus_1.numWorkItemsCompleted            0                       # number of work items this cpu completed
system.switch_cpus_1.numWorkItemsStarted            0                       # number of work items this cpu started
system.switch_cpus_1.rename.BlockCycles      19274513                       # Number of cycles rename is blocking
system.switch_cpus_1.rename.CommittedMaps    527844130                       # Number of HB maps that are committed
system.switch_cpus_1.rename.IQFullEvents      2080601                       # Number of times rename has blocked due to IQ full
system.switch_cpus_1.rename.IdleCycles       17737837                       # Number of cycles rename is idle
system.switch_cpus_1.rename.LQFullEvents     32015954                       # Number of times rename has blocked due to LQ full
system.switch_cpus_1.rename.ROBFullEvents      1618340                       # Number of times rename has blocked due to ROB full
system.switch_cpus_1.rename.RenameLookups   1356257027                       # Number of register rename lookups that rename has made
system.switch_cpus_1.rename.RenamedInsts    383046302                       # Number of instructions processed by rename
system.switch_cpus_1.rename.RenamedOperands    533363201                       # Number of destination operands rename has renamed
system.switch_cpus_1.rename.RunCycles        42498797                       # Number of cycles rename is running
system.switch_cpus_1.rename.SQFullEvents     50494771                       # Number of times rename has blocked due to SQ full
system.switch_cpus_1.rename.SquashCycles        72194                       # Number of cycles rename is squashing
system.switch_cpus_1.rename.UnblockCycles     90543806                       # Number of cycles rename is unblocking
system.switch_cpus_1.rename.UndoneMaps        5518947                       # Number of HB maps that are undone due to squashing
system.switch_cpus_1.rename.fp_rename_lookups      2313171                       # Number of floating rename lookups
system.switch_cpus_1.rename.int_rename_lookups    777238659                       # Number of integer rename lookups
system.switch_cpus_1.rename.serializeStallCycles            0                       # count of cycles rename stalled for serializing inst
system.switch_cpus_1.rename.serializingInsts            0                       # count of serializing insts renamed
system.switch_cpus_1.rename.skidInsts       101290151                       # count of insts added to the skid buffer
system.switch_cpus_1.rename.tempSerializingInsts            0                       # count of temporary serializing insts renamed
system.switch_cpus_1.rob.rob_reads          524925589                       # The number of ROB reads
system.switch_cpus_1.rob.rob_writes         765487834                       # The number of ROB writes
system.switch_cpus_1.timesIdled                    21                       # Number of times that the entire CPU went into an idle state and unscheduled itself
system.tol2bus.snoop_filter.hit_multi_requests           24                       # Number of requests hitting in the snoop filter with multiple (>1) holders of the requested data.
system.tol2bus.snoop_filter.hit_multi_snoops            0                       # Number of snoops hitting in the snoop filter with multiple (>1) holders of the requested data.
system.tol2bus.snoop_filter.hit_single_requests      1500528                       # Number of requests hitting in the snoop filter with a single holder of the requested data.
system.tol2bus.snoop_filter.hit_single_snoops         1467                       # Number of snoops hitting in the snoop filter with a single holder of the requested data.
system.tol2bus.snoop_filter.tot_requests      2997215                       # Total number of requests made to the snoop filter.
system.tol2bus.snoop_filter.tot_snoops           1467                       # Total number of snoops made to the snoop filter.
system.tol3bus.snoop_filter.hit_multi_requests            0                       # Number of requests hitting in the snoop filter with multiple (>1) holders of the requested data.
system.tol3bus.snoop_filter.hit_multi_snoops            0                       # Number of snoops hitting in the snoop filter with multiple (>1) holders of the requested data.
system.tol3bus.snoop_filter.hit_single_requests      1326537                       # Number of requests hitting in the snoop filter with a single holder of the requested data.
system.tol3bus.snoop_filter.hit_single_snoops        20301                       # Number of snoops hitting in the snoop filter with a single holder of the requested data.
system.tol3bus.snoop_filter.tot_requests      2651790                       # Total number of requests made to the snoop filter.
system.tol3bus.snoop_filter.tot_snoops          20301                       # Total number of snoops made to the snoop filter.
system.membus.trans_dist::ReadResp                729                       # Transaction distribution
system.membus.trans_dist::WritebackDirty        86199                       # Transaction distribution
system.membus.trans_dist::CleanEvict              394                       # Transaction distribution
system.membus.trans_dist::ReadExReq             85981                       # Transaction distribution
system.membus.trans_dist::ReadExResp            85981                       # Transaction distribution
system.membus.trans_dist::ReadSharedReq           729                       # Transaction distribution
system.membus.pkt_count_system.l3.mem_side::system.mem_ctrls.port       260013                       # Packet count per connected master and slave (bytes)
system.membus.pkt_count_system.l3.mem_side::total       260013                       # Packet count per connected master and slave (bytes)
system.membus.pkt_count::total                 260013                       # Packet count per connected master and slave (bytes)
system.membus.pkt_size_system.l3.mem_side::system.mem_ctrls.port     11066176                       # Cumulative packet size per connected master and slave (bytes)
system.membus.pkt_size_system.l3.mem_side::total     11066176                       # Cumulative packet size per connected master and slave (bytes)
system.membus.pkt_size::total                11066176                       # Cumulative packet size per connected master and slave (bytes)
system.membus.snoops                                0                       # Total snoops (count)
system.membus.snoopTraffic                          0                       # Total snoop traffic (bytes)
system.membus.snoop_fanout::samples             86710                       # Request fanout histogram
system.membus.snoop_fanout::mean                    0                       # Request fanout histogram
system.membus.snoop_fanout::stdev                   0                       # Request fanout histogram
system.membus.snoop_fanout::underflows              0      0.00%      0.00% # Request fanout histogram
system.membus.snoop_fanout::0                   86710    100.00%    100.00% # Request fanout histogram
system.membus.snoop_fanout::1                       0      0.00%    100.00% # Request fanout histogram
system.membus.snoop_fanout::overflows               0      0.00%    100.00% # Request fanout histogram
system.membus.snoop_fanout::min_value               0                       # Request fanout histogram
system.membus.snoop_fanout::max_value               0                       # Request fanout histogram
system.membus.snoop_fanout::total               86710                       # Request fanout histogram
system.membus.reqLayer2.occupancy           542679000                       # Layer occupancy (ticks)
system.membus.reqLayer2.utilization               0.6                       # Layer utilization (%)
system.membus.respLayer1.occupancy          472399500                       # Layer occupancy (ticks)
system.membus.respLayer1.utilization              0.6                       # Layer utilization (%)
system.membus.power_state.pwrStateResidencyTicks::UNDEFINED 1147019283000                       # Cumulative time (in ticks) in various power states
system.switch_cpus_1.dtb.walker.power_state.pwrStateResidencyTicks::UNDEFINED 1147019283000                       # Cumulative time (in ticks) in various power states
system.switch_cpus_1.itb.walker.power_state.pwrStateResidencyTicks::UNDEFINED 1147019283000                       # Cumulative time (in ticks) in various power states
system.switch_cpus_1.power_state.pwrStateResidencyTicks::OFF 1147019283000                       # Cumulative time (in ticks) in various power states
system.switch_cpus.dtb.walker.power_state.pwrStateResidencyTicks::UNDEFINED 1147019283000                       # Cumulative time (in ticks) in various power states
system.switch_cpus.itb.walker.power_state.pwrStateResidencyTicks::UNDEFINED 1147019283000                       # Cumulative time (in ticks) in various power states
system.switch_cpus.power_state.numTransitions            1                       # Number of power state transitions
system.switch_cpus.power_state.pwrStateResidencyTicks::OFF 1147019283000                       # Cumulative time (in ticks) in various power states
system.tol2bus.trans_dist::ReadResp            774179                       # Transaction distribution
system.tol2bus.trans_dist::WritebackDirty      1448547                       # Transaction distribution
system.tol2bus.trans_dist::WritebackClean           96                       # Transaction distribution
system.tol2bus.trans_dist::CleanEvict          790574                       # Transaction distribution
system.tol2bus.trans_dist::UpgradeReq            3841                       # Transaction distribution
system.tol2bus.trans_dist::UpgradeResp           3841                       # Transaction distribution
system.tol2bus.trans_dist::ReadExReq           722508                       # Transaction distribution
system.tol2bus.trans_dist::ReadExResp          722508                       # Transaction distribution
system.tol2bus.trans_dist::ReadCleanReq        774179                       # Transaction distribution
system.tol2bus.pkt_count_system.cpu.icache.mem_side::system.l2.cpu_side          288                       # Packet count per connected master and slave (bytes)
system.tol2bus.pkt_count_system.cpu.dcache.mem_side::system.l2.cpu_side      4497455                       # Packet count per connected master and slave (bytes)
system.tol2bus.pkt_count::total               4497743                       # Packet count per connected master and slave (bytes)
system.tol2bus.pkt_size_system.cpu.icache.mem_side::system.l2.cpu_side        12288                       # Cumulative packet size per connected master and slave (bytes)
system.tol2bus.pkt_size_system.cpu.dcache.mem_side::system.l2.cpu_side    142269632                       # Cumulative packet size per connected master and slave (bytes)
system.tol2bus.pkt_size::total              142281920                       # Cumulative packet size per connected master and slave (bytes)
system.tol2bus.snoops                          742530                       # Total snoops (count)
system.tol2bus.snoopTraffic                  46219200                       # Total snoop traffic (bytes)
system.tol2bus.snoop_fanout::samples          2243058                       # Request fanout histogram
system.tol2bus.snoop_fanout::mean            0.000665                       # Request fanout histogram
system.tol2bus.snoop_fanout::stdev           0.025774                       # Request fanout histogram
system.tol2bus.snoop_fanout::underflows             0      0.00%      0.00% # Request fanout histogram
system.tol2bus.snoop_fanout::0                2241567     99.93%     99.93% # Request fanout histogram
system.tol2bus.snoop_fanout::1                   1491      0.07%    100.00% # Request fanout histogram
system.tol2bus.snoop_fanout::2                      0      0.00%    100.00% # Request fanout histogram
system.tol2bus.snoop_fanout::3                      0      0.00%    100.00% # Request fanout histogram
system.tol2bus.snoop_fanout::4                      0      0.00%    100.00% # Request fanout histogram
system.tol2bus.snoop_fanout::overflows              0      0.00%    100.00% # Request fanout histogram
system.tol2bus.snoop_fanout::min_value              0                       # Request fanout histogram
system.tol2bus.snoop_fanout::max_value              1                       # Request fanout histogram
system.tol2bus.snoop_fanout::total            2243058                       # Request fanout histogram
system.tol2bus.reqLayer0.occupancy         2225075500                       # Layer occupancy (ticks)
system.tol2bus.reqLayer0.utilization              2.6                       # Layer utilization (%)
system.tol2bus.respLayer1.occupancy        2246807000                       # Layer occupancy (ticks)
system.tol2bus.respLayer1.utilization             2.6                       # Layer utilization (%)
system.tol2bus.respLayer0.occupancy            144499                       # Layer occupancy (ticks)
system.tol2bus.respLayer0.utilization             0.0                       # Layer utilization (%)
system.tol2bus.power_state.pwrStateResidencyTicks::UNDEFINED 1147019283000                       # Cumulative time (in ticks) in various power states
system.voltage_domain.voltage                       1                       # Voltage in Volts
system.clk_domain.clock                          1000                       # Clock period in ticks
system.l2.demand_hits::.switch_cpus_1.inst           14                       # number of demand (read+write) hits
system.l2.demand_hits::.switch_cpus_1.data       171396                       # number of demand (read+write) hits
system.l2.demand_hits::total                   171410                       # number of demand (read+write) hits
system.l2.overall_hits::.switch_cpus_1.inst           14                       # number of overall hits
system.l2.overall_hits::.switch_cpus_1.data       171396                       # number of overall hits
system.l2.overall_hits::total                  171410                       # number of overall hits
system.l2.demand_misses::.switch_cpus_1.inst           82                       # number of demand (read+write) misses
system.l2.demand_misses::.switch_cpus_1.data      1325195                       # number of demand (read+write) misses
system.l2.demand_misses::total                1325277                       # number of demand (read+write) misses
system.l2.overall_misses::.switch_cpus_1.inst           82                       # number of overall misses
system.l2.overall_misses::.switch_cpus_1.data      1325195                       # number of overall misses
system.l2.overall_misses::total               1325277                       # number of overall misses
system.l2.demand_miss_latency::.switch_cpus_1.inst      8116000                       # number of demand (read+write) miss cycles
system.l2.demand_miss_latency::.switch_cpus_1.data  44560194500                       # number of demand (read+write) miss cycles
system.l2.demand_miss_latency::total      44568310500                       # number of demand (read+write) miss cycles
system.l2.overall_miss_latency::.switch_cpus_1.inst      8116000                       # number of overall miss cycles
system.l2.overall_miss_latency::.switch_cpus_1.data  44560194500                       # number of overall miss cycles
system.l2.overall_miss_latency::total     44568310500                       # number of overall miss cycles
system.l2.demand_accesses::.switch_cpus_1.inst           96                       # number of demand (read+write) accesses
system.l2.demand_accesses::.switch_cpus_1.data      1496591                       # number of demand (read+write) accesses
system.l2.demand_accesses::total              1496687                       # number of demand (read+write) accesses
system.l2.overall_accesses::.switch_cpus_1.inst           96                       # number of overall (read+write) accesses
system.l2.overall_accesses::.switch_cpus_1.data      1496591                       # number of overall (read+write) accesses
system.l2.overall_accesses::total             1496687                       # number of overall (read+write) accesses
system.l2.demand_miss_rate::.switch_cpus_1.inst     0.854167                       # miss rate for demand accesses
system.l2.demand_miss_rate::.switch_cpus_1.data     0.885476                       # miss rate for demand accesses
system.l2.demand_miss_rate::total            0.885474                       # miss rate for demand accesses
system.l2.overall_miss_rate::.switch_cpus_1.inst     0.854167                       # miss rate for overall accesses
system.l2.overall_miss_rate::.switch_cpus_1.data     0.885476                       # miss rate for overall accesses
[...]
system.cpu.dcache.demand_miss_latency::.switch_cpus.data  11150369000                       # number of demand (read+write) miss cycles
system.cpu.dcache.demand_miss_latency::.switch_cpus_1.data  65170642868                       # number of demand (read+write) miss cycles
system.cpu.dcache.demand_miss_latency::total  76321011868                       # number of demand (read+write) miss cycles
system.cpu.dcache.overall_miss_latency::.switch_cpus.data  11150369000                       # number of overall miss cycles
system.cpu.dcache.overall_miss_latency::.switch_cpus_1.data  65170642868                       # number of overall miss cycles
system.cpu.dcache.overall_miss_latency::total  76321011868                       # number of overall miss cycles
system.cpu.dcache.demand_accesses::.cpu.data    578989829                       # number of demand (read+write) accesses
system.cpu.dcache.demand_accesses::.switch_cpus.data     29125032                       # number of demand (read+write) accesses
system.cpu.dcache.demand_accesses::.switch_cpus_1.data    139029252                       # number of demand (read+write) accesses
system.cpu.dcache.demand_accesses::total    747144113                       # number of demand (read+write) accesses
system.cpu.dcache.overall_accesses::.cpu.data    578989829                       # number of overall (read+write) accesses
system.cpu.dcache.overall_accesses::.switch_cpus.data     29125032                       # number of overall (read+write) accesses
system.cpu.dcache.overall_accesses::.switch_cpus_1.data    139029252                       # number of overall (read+write) accesses
system.cpu.dcache.overall_accesses::total    747144113                       # number of overall (read+write) accesses
system.cpu.dcache.demand_miss_rate::.cpu.data     0.010637                       # miss rate for demand accesses
system.cpu.dcache.demand_miss_rate::.switch_cpus.data     0.010799                       # miss rate for demand accesses
system.cpu.dcache.demand_miss_rate::.switch_cpus_1.data     0.017520                       # miss rate for demand accesses
system.cpu.dcache.demand_miss_rate::total     0.011925                       # miss rate for demand accesses
system.cpu.dcache.overall_miss_rate::.cpu.data     0.010637                       # miss rate for overall accesses
system.cpu.dcache.overall_miss_rate::.switch_cpus.data     0.010799                       # miss rate for overall accesses
system.cpu.dcache.overall_miss_rate::.switch_cpus_1.data     0.017520                       # miss rate for overall accesses
system.cpu.dcache.overall_miss_rate::total     0.011925                       # miss rate for overall accesses
system.cpu.dcache.demand_avg_miss_latency::.switch_cpus.data 35451.117230                       # average overall miss latency
system.cpu.dcache.demand_avg_miss_latency::.switch_cpus_1.data 26754.894766                       # average overall miss latency
system.cpu.dcache.demand_avg_miss_latency::total  8566.407564                       # average overall miss latency
system.cpu.dcache.overall_avg_miss_latency::.switch_cpus.data 35451.117230                       # average overall miss latency
system.cpu.dcache.overall_avg_miss_latency::.switch_cpus_1.data 26754.894766                       # average overall miss latency
system.cpu.dcache.overall_avg_miss_latency::total  8566.407564                       # average overall miss latency
system.cpu.dcache.blocked_cycles::no_mshrs       222574                       # number of cycles access was blocked
system.cpu.dcache.blocked_cycles::no_targets            3                       # number of cycles access was blocked
system.cpu.dcache.blocked::no_mshrs             12821                       # number of cycles access was blocked
system.cpu.dcache.blocked::no_targets               1                       # number of cycles access was blocked
system.cpu.dcache.avg_blocked_cycles::no_mshrs    17.360112                       # average number of cycles each access was blocked
system.cpu.dcache.avg_blocked_cycles::no_targets            3                       # average number of cycles each access was blocked
system.cpu.dcache.writebacks::.writebacks      3765207                       # number of writebacks
system.cpu.dcache.writebacks::total           3765207                       # number of writebacks
system.cpu.dcache.demand_mshr_hits::.switch_cpus_1.data       936246                       # number of demand (read+write) MSHR hits
system.cpu.dcache.demand_mshr_hits::total       936246                       # number of demand (read+write) MSHR hits
system.cpu.dcache.overall_mshr_hits::.switch_cpus_1.data       936246                       # number of overall MSHR hits
system.cpu.dcache.overall_mshr_hits::total       936246                       # number of overall MSHR hits
system.cpu.dcache.demand_mshr_misses::.switch_cpus.data       314528                       # number of demand (read+write) MSHR misses
system.cpu.dcache.demand_mshr_misses::.switch_cpus_1.data      1499594                       # number of demand (read+write) MSHR misses
system.cpu.dcache.demand_mshr_misses::total      1814122                       # number of demand (read+write) MSHR misses
system.cpu.dcache.overall_mshr_misses::.switch_cpus.data       314528                       # number of overall MSHR misses
system.cpu.dcache.overall_mshr_misses::.switch_cpus_1.data      1499594                       # number of overall MSHR misses
system.cpu.dcache.overall_mshr_misses::total      1814122                       # number of overall MSHR misses
system.cpu.dcache.demand_mshr_miss_latency::.switch_cpus.data  10835841000                       # number of demand (read+write) MSHR miss cycles
system.cpu.dcache.demand_mshr_miss_latency::.switch_cpus_1.data  48701700368                       # number of demand (read+write) MSHR miss cycles
system.cpu.dcache.demand_mshr_miss_latency::total  59537541368                       # number of demand (read+write) MSHR miss cycles
system.cpu.dcache.overall_mshr_miss_latency::.switch_cpus.data  10835841000                       # number of overall MSHR miss cycles
system.cpu.dcache.overall_mshr_miss_latency::.switch_cpus_1.data  48701700368                       # number of overall MSHR miss cycles
system.cpu.dcache.overall_mshr_miss_latency::total  59537541368                       # number of overall MSHR miss cycles
system.cpu.dcache.demand_mshr_miss_rate::.switch_cpus.data     0.010799                       # mshr miss rate for demand accesses
system.cpu.dcache.demand_mshr_miss_rate::.switch_cpus_1.data     0.010786                       # mshr miss rate for demand accesses
system.cpu.dcache.demand_mshr_miss_rate::total     0.002428                       # mshr miss rate for demand accesses
system.cpu.dcache.overall_mshr_miss_rate::.switch_cpus.data     0.010799                       # mshr miss rate for overall accesses
system.cpu.dcache.overall_mshr_miss_rate::.switch_cpus_1.data     0.010786                       # mshr miss rate for overall accesses
system.cpu.dcache.overall_mshr_miss_rate::total     0.002428                       # mshr miss rate for overall accesses
system.cpu.dcache.demand_avg_mshr_miss_latency::.switch_cpus.data 34451.117230                       # average overall mshr miss latency
system.cpu.dcache.demand_avg_mshr_miss_latency::.switch_cpus_1.data 32476.590576                       # average overall mshr miss latency
system.cpu.dcache.demand_avg_mshr_miss_latency::total 32818.929139                       # average overall mshr miss latency
system.cpu.dcache.overall_avg_mshr_miss_latency::.switch_cpus.data 34451.117230                       # average overall mshr miss latency
system.cpu.dcache.overall_avg_mshr_miss_latency::.switch_cpus_1.data 32476.590576                       # average overall mshr miss latency
system.cpu.dcache.overall_avg_mshr_miss_latency::total 32818.929139                       # average overall mshr miss latency
system.cpu.dcache.replacements                7949707                       # number of replacements
system.cpu.dcache.ReadReq_hits::.cpu.data    423154037                       # number of ReadReq hits
system.cpu.dcache.ReadReq_hits::.switch_cpus.data     21302592                       # number of ReadReq hits
system.cpu.dcache.ReadReq_hits::.switch_cpus_1.data     99066203                       # number of ReadReq hits
system.cpu.dcache.ReadReq_hits::total       543522832                       # number of ReadReq hits
system.cpu.dcache.ReadReq_misses::.cpu.data      3266661                       # number of ReadReq misses
system.cpu.dcache.ReadReq_misses::.switch_cpus.data       167807                       # number of ReadReq misses
system.cpu.dcache.ReadReq_misses::.switch_cpus_1.data      1709491                       # number of ReadReq misses
system.cpu.dcache.ReadReq_misses::total       5143959                       # number of ReadReq misses
system.cpu.dcache.ReadReq_miss_latency::.switch_cpus.data   4444991500                       # number of ReadReq miss cycles
system.cpu.dcache.ReadReq_miss_latency::.switch_cpus_1.data  35992547500                       # number of ReadReq miss cycles
system.cpu.dcache.ReadReq_miss_latency::total  40437539000                       # number of ReadReq miss cycles
system.cpu.dcache.ReadReq_accesses::.cpu.data    426420698                       # number of ReadReq accesses(hits+misses)
system.cpu.dcache.ReadReq_accesses::.switch_cpus.data     21470399                       # number of ReadReq accesses(hits+misses)
system.cpu.dcache.ReadReq_accesses::.switch_cpus_1.data    100775694                       # number of ReadReq accesses(hits+misses)
system.cpu.dcache.ReadReq_accesses::total    548666791                       # number of ReadReq accesses(hits+misses)
system.cpu.dcache.ReadReq_miss_rate::.cpu.data     0.007661                       # miss rate for ReadReq accesses
system.cpu.dcache.ReadReq_miss_rate::.switch_cpus.data     0.007816                       # miss rate for ReadReq accesses
system.cpu.dcache.ReadReq_miss_rate::.switch_cpus_1.data     0.016963                       # miss rate for ReadReq accesses
system.cpu.dcache.ReadReq_miss_rate::total     0.009375                       # miss rate for ReadReq accesses
system.cpu.dcache.ReadReq_avg_miss_latency::.switch_cpus.data 26488.713224                       # average ReadReq miss latency
system.cpu.dcache.ReadReq_avg_miss_latency::.switch_cpus_1.data 21054.540504                       # average ReadReq miss latency
system.cpu.dcache.ReadReq_avg_miss_latency::total  7861.170550                       # average ReadReq miss latency
system.cpu.dcache.ReadReq_mshr_hits::.switch_cpus_1.data       935408                       # number of ReadReq MSHR hits
system.cpu.dcache.ReadReq_mshr_hits::total       935408                       # number of ReadReq MSHR hits
system.cpu.dcache.ReadReq_mshr_misses::.switch_cpus.data       167807                       # number of ReadReq MSHR misses
system.cpu.dcache.ReadReq_mshr_misses::.switch_cpus_1.data       774083                       # number of ReadReq MSHR misses
system.cpu.dcache.ReadReq_mshr_misses::total       941890                       # number of ReadReq MSHR misses
system.cpu.dcache.ReadReq_mshr_miss_latency::.switch_cpus.data   4277184500                       # number of ReadReq MSHR miss cycles
system.cpu.dcache.ReadReq_mshr_miss_latency::.switch_cpus_1.data  20249954000                       # number of ReadReq MSHR miss cycles
system.cpu.dcache.ReadReq_mshr_miss_latency::total  24527138500                       # number of ReadReq MSHR miss cycles
system.cpu.dcache.ReadReq_mshr_miss_rate::.switch_cpus.data     0.007816                       # mshr miss rate for ReadReq accesses
system.cpu.dcache.ReadReq_mshr_miss_rate::.switch_cpus_1.data     0.007681                       # mshr miss rate for ReadReq accesses
system.cpu.dcache.ReadReq_mshr_miss_rate::total     0.001717                       # mshr miss rate for ReadReq accesses
system.cpu.dcache.ReadReq_avg_mshr_miss_latency::.switch_cpus.data 25488.713224                       # average ReadReq mshr miss latency
system.cpu.dcache.ReadReq_avg_mshr_miss_latency::.switch_cpus_1.data 26159.926003                       # average ReadReq mshr miss latency
system.cpu.dcache.ReadReq_avg_mshr_miss_latency::total 26040.342821                       # average ReadReq mshr miss latency
system.cpu.dcache.WriteReq_hits::.cpu.data    149676823                       # number of WriteReq hits
system.cpu.dcache.WriteReq_hits::.switch_cpus.data      7507912                       # number of WriteReq hits
system.cpu.dcache.WriteReq_hits::.switch_cpus_1.data     37527209                       # number of WriteReq hits
system.cpu.dcache.WriteReq_hits::total      194711944                       # number of WriteReq hits
system.cpu.dcache.WriteReq_misses::.cpu.data      2892308                       # number of WriteReq misses
system.cpu.dcache.WriteReq_misses::.switch_cpus.data       146721                       # number of WriteReq misses
system.cpu.dcache.WriteReq_misses::.switch_cpus_1.data       726349                       # number of WriteReq misses
system.cpu.dcache.WriteReq_misses::total      3765378                       # number of WriteReq misses
system.cpu.dcache.WriteReq_miss_latency::.switch_cpus.data   6705377500                       # number of WriteReq miss cycles
system.cpu.dcache.WriteReq_miss_latency::.switch_cpus_1.data  29178095368                       # number of WriteReq miss cycles
system.cpu.dcache.WriteReq_miss_latency::total  35883472868                       # number of WriteReq miss cycles
system.cpu.dcache.WriteReq_accesses::.cpu.data    152569131                       # number of WriteReq accesses(hits+misses)
system.cpu.dcache.WriteReq_accesses::.switch_cpus.data      7654633                       # number of WriteReq accesses(hits+misses)
system.cpu.dcache.WriteReq_accesses::.switch_cpus_1.data     38253558                       # number of WriteReq accesses(hits+misses)
system.cpu.dcache.WriteReq_accesses::total    198477322                       # number of WriteReq accesses(hits+misses)
system.cpu.dcache.WriteReq_miss_rate::.cpu.data     0.018957                       # miss rate for WriteReq accesses
system.cpu.dcache.WriteReq_miss_rate::.switch_cpus.data     0.019168                       # miss rate for WriteReq accesses
system.cpu.dcache.WriteReq_miss_rate::.switch_cpus_1.data     0.018988                       # miss rate for WriteReq accesses
system.cpu.dcache.WriteReq_miss_rate::total     0.018971                       # miss rate for WriteReq accesses
system.cpu.dcache.WriteReq_avg_miss_latency::.switch_cpus.data 45701.552607                       # average WriteReq miss latency
system.cpu.dcache.WriteReq_avg_miss_latency::.switch_cpus_1.data 40170.903199                       # average WriteReq miss latency
system.cpu.dcache.WriteReq_avg_miss_latency::total  9529.846105                       # average WriteReq miss latency
system.cpu.dcache.WriteReq_mshr_hits::.switch_cpus_1.data          838                       # number of WriteReq MSHR hits
system.cpu.dcache.WriteReq_mshr_hits::total          838                       # number of WriteReq MSHR hits
system.cpu.dcache.WriteReq_mshr_misses::.switch_cpus.data       146721                       # number of WriteReq MSHR misses
system.cpu.dcache.WriteReq_mshr_misses::.switch_cpus_1.data       725511                       # number of WriteReq MSHR misses
system.cpu.dcache.WriteReq_mshr_misses::total       872232                       # number of WriteReq MSHR misses
system.cpu.dcache.WriteReq_mshr_miss_latency::.switch_cpus.data   6558656500                       # number of WriteReq MSHR miss cycles
system.cpu.dcache.WriteReq_mshr_miss_latency::.switch_cpus_1.data  28451746368                       # number of WriteReq MSHR miss cycles
system.cpu.dcache.WriteReq_mshr_miss_latency::total  35010402868                       # number of WriteReq MSHR miss cycles
system.cpu.dcache.WriteReq_mshr_miss_rate::.switch_cpus.data     0.019168                       # mshr miss rate for WriteReq accesses
system.cpu.dcache.WriteReq_mshr_miss_rate::.switch_cpus_1.data     0.018966                       # mshr miss rate for WriteReq accesses
system.cpu.dcache.WriteReq_mshr_miss_rate::total     0.004395                       # mshr miss rate for WriteReq accesses
system.cpu.dcache.WriteReq_avg_mshr_miss_latency::.switch_cpus.data 44701.552607                       # average WriteReq mshr miss latency
system.cpu.dcache.WriteReq_avg_mshr_miss_latency::.switch_cpus_1.data 39216.147471                       # average WriteReq mshr miss latency
system.cpu.dcache.WriteReq_avg_mshr_miss_latency::total 40138.865426                       # average WriteReq mshr miss latency
system.cpu.dcache.power_state.pwrStateResidencyTicks::UNDEFINED 1147019283000                       # Cumulative time (in ticks) in various power states
system.cpu.dcache.tags.tagsinuse           511.993591                       # Cycle average of tags in use
system.cpu.dcache.tags.total_refs           746209205                       # Total number of references to valid blocks.
system.cpu.dcache.tags.sampled_refs           7950219                       # Sample count of references to valid blocks.
system.cpu.dcache.tags.avg_refs             93.860207                       # Average number of references to valid blocks.
system.cpu.dcache.tags.warmup_cycle              1500                       # Cycle when the warmup percentage was hit.
system.cpu.dcache.tags.occ_blocks::.cpu.data   425.964847                       # Average occupied blocks per requestor
system.cpu.dcache.tags.occ_blocks::.switch_cpus.data    48.094034                       # Average occupied blocks per requestor
system.cpu.dcache.tags.occ_blocks::.switch_cpus_1.data    37.934710                       # Average occupied blocks per requestor
system.cpu.dcache.tags.occ_percent::.cpu.data     0.831963                       # Average percentage of cache occupancy
system.cpu.dcache.tags.occ_percent::.switch_cpus.data     0.093934                       # Average percentage of cache occupancy
system.cpu.dcache.tags.occ_percent::.switch_cpus_1.data     0.074091                       # Average percentage of cache occupancy
system.cpu.dcache.tags.occ_percent::total     0.999987                       # Average percentage of cache occupancy
system.cpu.dcache.tags.occ_task_id_blocks::1024          512                       # Occupied blocks per task id
system.cpu.dcache.tags.age_task_id_blocks_1024::0          101                       # Occupied blocks per task id
system.cpu.dcache.tags.age_task_id_blocks_1024::1          393                       # Occupied blocks per task id
system.cpu.dcache.tags.age_task_id_blocks_1024::2           18                       # Occupied blocks per task id
system.cpu.dcache.tags.occ_task_id_percent::1024            1                       # Percentage of cache occupancy per task id
system.cpu.dcache.tags.tag_accesses        2996526671                       # Number of tag accesses
system.cpu.dcache.tags.data_accesses       2996526671                       # Number of data accesses
system.cpu.dcache.tags.power_state.pwrStateResidencyTicks::UNDEFINED 1147019283000                       # Cumulative time (in ticks) in various power states
system.cpu.power_state.numTransitions               2                       # Number of power state transitions
system.cpu.power_state.pwrStateResidencyTicks::ON 952815049000                       # Cumulative time (in ticks) in various power states
system.cpu.power_state.pwrStateResidencyTicks::OFF 194204234000                       # Cumulative time (in ticks) in various power states

---------- End Simulation Statistics   ----------
