
---------- Begin Simulation Statistics ----------
final_tick                               200944379000                       # Number of ticks from beginning of simulation (restored from checkpoints and never reset)
host_inst_rate                                 171698                       # Simulator instruction rate (inst/s)
host_mem_usage                                 868668                       # Number of bytes of host memory used
host_op_rate                                   178939                       # Simulator op (including micro ops) rate (op/s)
host_seconds                                   582.42                       # Real time elapsed on the host
host_tick_rate                              345016902                       # Simulator tick rate (ticks/s)
sim_freq                                 1000000000000                       # Frequency of simulated ticks
sim_insts                                   100000000                       # Number of instructions simulated
sim_ops                                     104217524                       # Number of ops (including micro ops) simulated
sim_seconds                                  0.200944                       # Number of seconds simulated
sim_ticks                                200944379000                       # Number of ticks simulated
system.cpu.branchPred.BTBCorrect                    0                       # Number of correct BTB predictions (this stat may not work properly.
system.cpu.branchPred.BTBHitPct             99.562649                       # BTB Hit Percentage
system.cpu.branchPred.BTBHits                14506945                       # Number of BTB hits
system.cpu.branchPred.BTBLookups             14570670                       # Number of BTB lookups
system.cpu.branchPred.RASInCorrect                  9                       # Number of incorrect RAS predictions.
system.cpu.branchPred.condIncorrect            799266                       # Number of conditional branches incorrect
system.cpu.branchPred.condPredicted          19513930                       # Number of conditional branches predicted
system.cpu.branchPred.indirectHits             106589                       # Number of indirect target hits.
system.cpu.branchPred.indirectLookups          107376                       # Number of indirect predictor lookups.
system.cpu.branchPred.indirectMisses              787                       # Number of indirect misses.
system.cpu.branchPred.lookups                21666049                       # Number of BP lookups
system.cpu.branchPred.usedRAS                  547084                       # Number of times the RAS was used to get a target.
system.cpu.branchPredindirectMispredicted        17866                       # Number of mispredicted indirect branches.
system.cpu.committedInsts                   100000000                       # Number of instructions committed
system.cpu.committedOps                     104217524                       # Number of ops (including micro ops) committed
system.cpu.cpi                               4.018888                       # CPI: cycles per instruction
system.cpu.discardedOps                       1061224                       # Number of ops (including micro ops) which were discarded before commit
system.cpu.dtb.accesses                             0                       # DTB accesses
system.cpu.dtb.align_faults                         0                       # Number of TLB faults due to alignment restrictions
system.cpu.dtb.domain_faults                        0                       # Number of TLB faults due to domain restrictions
system.cpu.dtb.flush_entries                        0                       # Number of entries that have been flushed from TLB
system.cpu.dtb.flush_tlb                            0                       # Number of times complete TLB was flushed
system.cpu.dtb.flush_tlb_asid                       0                       # Number of times TLB was flushed by ASID
system.cpu.dtb.flush_tlb_mva                        0                       # Number of times TLB was flushed by MVA
system.cpu.dtb.flush_tlb_mva_asid                   0                       # Number of times TLB was flushed by MVA & ASID
system.cpu.dtb.hits                                 0                       # DTB hits
system.cpu.dtb.inst_accesses                        0                       # ITB inst accesses
system.cpu.dtb.inst_hits                            0                       # ITB inst hits
system.cpu.dtb.inst_misses                          0                       # ITB inst misses
system.cpu.dtb.misses                               0                       # DTB misses
system.cpu.dtb.perms_faults                         0                       # Number of TLB faults due to permissions restrictions
system.cpu.dtb.prefetch_faults                      0                       # Number of TLB faults due to prefetch
system.cpu.dtb.read_accesses                        0                       # DTB read accesses
system.cpu.dtb.read_hits                            0                       # DTB read hits
system.cpu.dtb.read_misses                          0                       # DTB read misses
system.cpu.dtb.stage2_mmu.stage2_tlb.accesses            0                       # DTB accesses
system.cpu.dtb.stage2_mmu.stage2_tlb.align_faults            0                       # Number of TLB faults due to alignment restrictions
system.cpu.dtb.stage2_mmu.stage2_tlb.domain_faults            0                       # Number of TLB faults due to domain restrictions
system.cpu.dtb.stage2_mmu.stage2_tlb.flush_entries            0                       # Number of entries that have been flushed from TLB
system.cpu.dtb.stage2_mmu.stage2_tlb.flush_tlb            0                       # Number of times complete TLB was flushed
system.cpu.dtb.stage2_mmu.stage2_tlb.flush_tlb_asid            0                       # Number of times TLB was flushed by ASID
system.cpu.dtb.stage2_mmu.stage2_tlb.flush_tlb_mva            0                       # Number of times TLB was flushed by MVA
system.cpu.dtb.stage2_mmu.stage2_tlb.flush_tlb_mva_asid            0                       # Number of times TLB was flushed by MVA & ASID
system.cpu.dtb.stage2_mmu.stage2_tlb.hits            0                       # DTB hits
system.cpu.dtb.stage2_mmu.stage2_tlb.inst_accesses            0                       # ITB inst accesses
system.cpu.dtb.stage2_mmu.stage2_tlb.inst_hits            0                       # ITB inst hits
system.cpu.dtb.stage2_mmu.stage2_tlb.inst_misses            0                       # ITB inst misses
system.cpu.dtb.stage2_mmu.stage2_tlb.misses            0                       # DTB misses
system.cpu.dtb.stage2_mmu.stage2_tlb.perms_faults            0                       # Number of TLB faults due to permissions restrictions
system.cpu.dtb.stage2_mmu.stage2_tlb.prefetch_faults            0                       # Number of TLB faults due to prefetch
system.cpu.dtb.stage2_mmu.stage2_tlb.read_accesses            0                       # DTB read accesses
system.cpu.dtb.stage2_mmu.stage2_tlb.read_hits            0                       # DTB read hits
system.cpu.dtb.stage2_mmu.stage2_tlb.read_misses            0                       # DTB read misses
system.cpu.dtb.stage2_mmu.stage2_tlb.walker.walkRequestOrigin_Requested::Data            0                       # Table walker requests started/completed, data/inst
system.cpu.dtb.stage2_mmu.stage2_tlb.walker.walkRequestOrigin_Requested::Inst            0                       # Table walker requests started/completed, data/inst
system.cpu.dtb.stage2_mmu.stage2_tlb.walker.walkRequestOrigin_Requested::total            0                       # Table walker requests started/completed, data/inst
system.cpu.dtb.stage2_mmu.stage2_tlb.walker.walkRequestOrigin_Completed::Data            0                       # Table walker requests started/completed, data/inst
system.cpu.dtb.stage2_mmu.stage2_tlb.walker.walkRequestOrigin_Completed::Inst            0                       # Table walker requests started/completed, data/inst
system.cpu.dtb.stage2_mmu.stage2_tlb.walker.walkRequestOrigin_Completed::total            0                       # Table walker requests started/completed, data/inst
system.cpu.dtb.stage2_mmu.stage2_tlb.walker.walkRequestOrigin::total            0                       # Table walker requests started/completed, data/inst
system.cpu.dtb.stage2_mmu.stage2_tlb.walker.walks            0                       # Table walker walks requested
system.cpu.dtb.stage2_mmu.stage2_tlb.write_accesses            0                       # DTB write accesses
system.cpu.dtb.stage2_mmu.stage2_tlb.write_hits            0                       # DTB write hits
system.cpu.dtb.stage2_mmu.stage2_tlb.write_misses            0                       # DTB write misses
system.cpu.dtb.walker.walkRequestOrigin_Requested::Data            0                       # Table walker requests started/completed, data/inst
system.cpu.dtb.walker.walkRequestOrigin_Requested::Inst            0                       # Table walker requests started/completed, data/inst
system.cpu.dtb.walker.walkRequestOrigin_Requested::total            0                       # Table walker requests started/completed, data/inst
system.cpu.dtb.walker.walkRequestOrigin_Completed::Data            0                       # Table walker requests started/completed, data/inst
system.cpu.dtb.walker.walkRequestOrigin_Completed::Inst            0                       # Table walker requests started/completed, data/inst
system.cpu.dtb.walker.walkRequestOrigin_Completed::total            0                       # Table walker requests started/completed, data/inst
system.cpu.dtb.walker.walkRequestOrigin::total            0                       # Table walker requests started/completed, data/inst
system.cpu.dtb.walker.walks                         0                       # Table walker walks requested
system.cpu.dtb.write_accesses                       0                       # DTB write accesses
system.cpu.dtb.write_hits                           0                       # DTB write hits
system.cpu.dtb.write_misses                         0                       # DTB write misses
system.cpu.fetch2.amo_instructions                  0                       # Number of memory atomic instructions successfully decoded
system.cpu.fetch2.fp_instructions                   0                       # Number of floating point instructions successfully decoded
system.cpu.fetch2.int_instructions           58943865                       # Number of integer instructions successfully decoded
system.cpu.fetch2.load_instructions          10735847                       # Number of memory load instructions successfully decoded
system.cpu.fetch2.store_instructions         11834042                       # Number of memory store instructions successfully decoded
system.cpu.fetch2.vec_instructions              12527                       # Number of SIMD instructions successfully decoded
system.cpu.idleCycles                       195735141                       # Total number of cycles that the object has spent stopped
system.cpu.ipc                               0.248825                       # IPC: instructions per cycle
system.cpu.itb.accesses                             0                       # DTB accesses
system.cpu.itb.align_faults                         0                       # Number of TLB faults due to alignment restrictions
system.cpu.itb.domain_faults                        0                       # Number of TLB faults due to domain restrictions
system.cpu.itb.flush_entries                        0                       # Number of entries that have been flushed from TLB
system.cpu.itb.flush_tlb                            0                       # Number of times complete TLB was flushed
system.cpu.itb.flush_tlb_asid                       0                       # Number of times TLB was flushed by ASID
system.cpu.itb.flush_tlb_mva                        0                       # Number of times TLB was flushed by MVA
system.cpu.itb.flush_tlb_mva_asid                   0                       # Number of times TLB was flushed by MVA & ASID
system.cpu.itb.hits                                 0                       # DTB hits
system.cpu.itb.inst_accesses                        0                       # ITB inst accesses
system.cpu.itb.inst_hits                            0                       # ITB inst hits
system.cpu.itb.inst_misses                          0                       # ITB inst misses
system.cpu.itb.misses                               0                       # DTB misses
system.cpu.itb.perms_faults                         0                       # Number of TLB faults due to permissions restrictions
system.cpu.itb.prefetch_faults                      0                       # Number of TLB faults due to prefetch
system.cpu.itb.read_accesses                        0                       # DTB read accesses
system.cpu.itb.read_hits                            0                       # DTB read hits
system.cpu.itb.read_misses                          0                       # DTB read misses
system.cpu.itb.stage2_mmu.stage2_tlb.accesses            0                       # DTB accesses
system.cpu.itb.stage2_mmu.stage2_tlb.align_faults            0                       # Number of TLB faults due to alignment restrictions
system.cpu.itb.stage2_mmu.stage2_tlb.domain_faults            0                       # Number of TLB faults due to domain restrictions
system.cpu.itb.stage2_mmu.stage2_tlb.flush_entries            0                       # Number of entries that have been flushed from TLB
system.cpu.itb.stage2_mmu.stage2_tlb.flush_tlb            0                       # Number of times complete TLB was flushed
system.cpu.itb.stage2_mmu.stage2_tlb.flush_tlb_asid            0                       # Number of times TLB was flushed by ASID
system.cpu.itb.stage2_mmu.stage2_tlb.flush_tlb_mva            0                       # Number of times TLB was flushed by MVA
system.cpu.itb.stage2_mmu.stage2_tlb.flush_tlb_mva_asid            0                       # Number of times TLB was flushed by MVA & ASID
system.cpu.itb.stage2_mmu.stage2_tlb.hits            0                       # DTB hits
system.cpu.itb.stage2_mmu.stage2_tlb.inst_accesses            0                       # ITB inst accesses
system.cpu.itb.stage2_mmu.stage2_tlb.inst_hits            0                       # ITB inst hits
system.cpu.itb.stage2_mmu.stage2_tlb.inst_misses            0                       # ITB inst misses
system.cpu.itb.stage2_mmu.stage2_tlb.misses            0                       # DTB misses
system.cpu.itb.stage2_mmu.stage2_tlb.perms_faults            0                       # Number of TLB faults due to permissions restrictions
system.cpu.itb.stage2_mmu.stage2_tlb.prefetch_faults            0                       # Number of TLB faults due to prefetch
system.cpu.itb.stage2_mmu.stage2_tlb.read_accesses            0                       # DTB read accesses
system.cpu.itb.stage2_mmu.stage2_tlb.read_hits            0                       # DTB read hits
system.cpu.itb.stage2_mmu.stage2_tlb.read_misses            0                       # DTB read misses
system.cpu.itb.stage2_mmu.stage2_tlb.walker.walkRequestOrigin_Requested::Data            0                       # Table walker requests started/completed, data/inst
system.cpu.itb.stage2_mmu.stage2_tlb.walker.walkRequestOrigin_Requested::Inst            0                       # Table walker requests started/completed, data/inst
system.cpu.itb.stage2_mmu.stage2_tlb.walker.walkRequestOrigin_Requested::total            0                       # Table walker requests started/completed, data/inst
system.cpu.itb.stage2_mmu.stage2_tlb.walker.walkRequestOrigin_Completed::Data            0                       # Table walker requests started/completed, data/inst
system.cpu.itb.stage2_mmu.stage2_tlb.walker.walkRequestOrigin_Completed::Inst            0                       # Table walker requests started/completed, data/inst
system.cpu.itb.stage2_mmu.stage2_tlb.walker.walkRequestOrigin_Completed::total            0                       # Table walker requests started/completed, data/inst
system.cpu.itb.stage2_mmu.stage2_tlb.walker.walkRequestOrigin::total            0                       # Table walker requests started/completed, data/inst
system.cpu.itb.stage2_mmu.stage2_tlb.walker.walks            0                       # Table walker walks requested
system.cpu.itb.stage2_mmu.stage2_tlb.write_accesses            0                       # DTB write accesses
system.cpu.itb.stage2_mmu.stage2_tlb.write_hits            0                       # DTB write hits
system.cpu.itb.stage2_mmu.stage2_tlb.write_misses            0                       # DTB write misses
system.cpu.itb.walker.walkRequestOrigin_Requested::Data            0                       # Table walker requests started/completed, data/inst
system.cpu.itb.walker.walkRequestOrigin_Requested::Inst            0                       # Table walker requests started/completed, data/inst
system.cpu.itb.walker.walkRequestOrigin_Requested::total            0                       # Table walker requests started/completed, data/inst
system.cpu.itb.walker.walkRequestOrigin_Completed::Data            0                       # Table walker requests started/completed, data/inst
system.cpu.itb.walker.walkRequestOrigin_Completed::Inst            0                       # Table walker requests started/completed, data/inst
system.cpu.itb.walker.walkRequestOrigin_Completed::total            0                       # Table walker requests started/completed, data/inst
system.cpu.itb.walker.walkRequestOrigin::total            0                       # Table walker requests started/completed, data/inst
system.cpu.itb.walker.walks                         0                       # Table walker walks requested
system.cpu.itb.write_accesses                       0                       # DTB write accesses
system.cpu.itb.write_hits                           0                       # DTB write hits
system.cpu.itb.write_misses                         0                       # DTB write misses
system.cpu.numCycles                        401888758                       # number of cpu cycles simulated
system.cpu.numFetchSuspends                         0                       # Number of times Execute suspended instruction fetching
system.cpu.numWorkItemsCompleted                    0                       # number of work items this cpu completed
system.cpu.numWorkItemsStarted                      0                       # number of work items this cpu started
system.cpu.op_class_0::No_OpClass                 934      0.00%      0.00% # Class of committed instruction
system.cpu.op_class_0::IntAlu                77777462     74.63%     74.63% # Class of committed instruction
system.cpu.op_class_0::IntMult                 316058      0.30%     74.93% # Class of committed instruction
system.cpu.op_class_0::IntDiv                   31070      0.03%     74.96% # Class of committed instruction
system.cpu.op_class_0::FloatAdd                     0      0.00%     74.96% # Class of committed instruction
system.cpu.op_class_0::FloatCmp                     5      0.00%     74.96% # Class of committed instruction
system.cpu.op_class_0::FloatCvt                    15      0.00%     74.96% # Class of committed instruction
system.cpu.op_class_0::FloatMult                    5      0.00%     74.96% # Class of committed instruction
system.cpu.op_class_0::FloatMultAcc                 0      0.00%     74.96% # Class of committed instruction
system.cpu.op_class_0::FloatDiv                     5      0.00%     74.96% # Class of committed instruction
system.cpu.op_class_0::FloatMisc                   41      0.00%     74.96% # Class of committed instruction
system.cpu.op_class_0::FloatSqrt                    0      0.00%     74.96% # Class of committed instruction
system.cpu.op_class_0::SimdAdd                   1896      0.00%     74.97% # Class of committed instruction
system.cpu.op_class_0::SimdAddAcc                   0      0.00%     74.97% # Class of committed instruction
system.cpu.op_class_0::SimdAlu                   3756      0.00%     74.97% # Class of committed instruction
system.cpu.op_class_0::SimdCmp                   3728      0.00%     74.97% # Class of committed instruction
system.cpu.op_class_0::SimdCvt                      0      0.00%     74.97% # Class of committed instruction
system.cpu.op_class_0::SimdMisc                  2850      0.00%     74.98% # Class of committed instruction
system.cpu.op_class_0::SimdMult                     0      0.00%     74.98% # Class of committed instruction
system.cpu.op_class_0::SimdMultAcc                  0      0.00%     74.98% # Class of committed instruction
system.cpu.op_class_0::SimdShift                    0      0.00%     74.98% # Class of committed instruction
system.cpu.op_class_0::SimdShiftAcc                 0      0.00%     74.98% # Class of committed instruction
system.cpu.op_class_0::SimdDiv                      0      0.00%     74.98% # Class of committed instruction
system.cpu.op_class_0::SimdSqrt                     0      0.00%     74.98% # Class of committed instruction
system.cpu.op_class_0::SimdFloatAdd                 0      0.00%     74.98% # Class of committed instruction
system.cpu.op_class_0::SimdFloatAlu                 0      0.00%     74.98% # Class of committed instruction
system.cpu.op_class_0::SimdFloatCmp                 0      0.00%     74.98% # Class of committed instruction
system.cpu.op_class_0::SimdFloatCvt                 0      0.00%     74.98% # Class of committed instruction
system.cpu.op_class_0::SimdFloatDiv                 0      0.00%     74.98% # Class of committed instruction
system.cpu.op_class_0::SimdFloatMisc                0      0.00%     74.98% # Class of committed instruction
system.cpu.op_class_0::SimdFloatMult                0      0.00%     74.98% # Class of committed instruction
system.cpu.op_class_0::SimdFloatMultAcc             0      0.00%     74.98% # Class of committed instruction
system.cpu.op_class_0::SimdFloatSqrt                0      0.00%     74.98% # Class of committed instruction
system.cpu.op_class_0::SimdReduceAdd                0      0.00%     74.98% # Class of committed instruction
system.cpu.op_class_0::SimdReduceAlu                0      0.00%     74.98% # Class of committed instruction
system.cpu.op_class_0::SimdReduceCmp                0      0.00%     74.98% # Class of committed instruction
system.cpu.op_class_0::SimdFloatReduceAdd            0      0.00%     74.98% # Class of committed instruction
system.cpu.op_class_0::SimdFloatReduceCmp            0      0.00%     74.98% # Class of committed instruction
system.cpu.op_class_0::SimdAes                      0      0.00%     74.98% # Class of committed instruction
system.cpu.op_class_0::SimdAesMix                   0      0.00%     74.98% # Class of committed instruction
system.cpu.op_class_0::SimdSha1Hash                 0      0.00%     74.98% # Class of committed instruction
system.cpu.op_class_0::SimdSha1Hash2                0      0.00%     74.98% # Class of committed instruction
system.cpu.op_class_0::SimdSha256Hash               0      0.00%     74.98% # Class of committed instruction
system.cpu.op_class_0::SimdSha256Hash2              0      0.00%     74.98% # Class of committed instruction
system.cpu.op_class_0::SimdShaSigma2                0      0.00%     74.98% # Class of committed instruction
system.cpu.op_class_0::SimdShaSigma3                0      0.00%     74.98% # Class of committed instruction
system.cpu.op_class_0::SimdPredAlu                  0      0.00%     74.98% # Class of committed instruction
system.cpu.op_class_0::MemRead               12406465     11.90%     86.88% # Class of committed instruction
system.cpu.op_class_0::MemWrite              13673234     13.12%    100.00% # Class of committed instruction
system.cpu.op_class_0::FloatMemRead                 0      0.00%    100.00% # Class of committed instruction
system.cpu.op_class_0::FloatMemWrite                0      0.00%    100.00% # Class of committed instruction
system.cpu.op_class_0::IprAccess                    0      0.00%    100.00% # Class of committed instruction
system.cpu.op_class_0::InstPrefetch                 0      0.00%    100.00% # Class of committed instruction
system.cpu.op_class_0::total                104217524                       # Class of committed instruction
system.cpu.tickCycles                       206153617                       # Number of cycles that the object actually ticked
system.cpu.workload.numSyscalls                   144                       # Number of system calls
system.membus.snoop_filter.hit_multi_requests            0                       # Number of requests hitting in the snoop filter with multiple (>1) holders of the requested data.
system.membus.snoop_filter.hit_multi_snoops            0                       # Number of snoops hitting in the snoop filter with multiple (>1) holders of the requested data.
system.membus.snoop_filter.hit_single_requests      8276588                       # Number of requests hitting in the snoop filter with a single holder of the requested data.
system.membus.snoop_filter.hit_single_snoops            0                       # Number of snoops hitting in the snoop filter with a single holder of the requested data.
system.membus.snoop_filter.tot_requests      16585944                       # Total number of requests made to the snoop filter.
system.membus.snoop_filter.tot_snoops               0                       # Total number of snoops made to the snoop filter.
system.tol2bus.snoop_filter.hit_multi_requests            1                       # Number of requests hitting in the snoop filter with multiple (>1) holders of the requested data.
system.tol2bus.snoop_filter.hit_multi_snoops            0                       # Number of snoops hitting in the snoop filter with multiple (>1) holders of the requested data.
system.tol2bus.snoop_filter.hit_single_requests      9433521                       # Number of requests hitting in the snoop filter with a single holder of the requested data.
system.tol2bus.snoop_filter.hit_single_snoops          662                       # Number of snoops hitting in the snoop filter with a single holder of the requested data.
system.tol2bus.snoop_filter.tot_requests     18868323                       # Total number of requests made to the snoop filter.
system.tol2bus.snoop_filter.tot_snoops            662                       # Total number of snoops made to the snoop filter.
system.membus.trans_dist::ReadResp              18918                       # Transaction distribution
system.membus.trans_dist::WritebackDirty      8275447                       # Transaction distribution
system.membus.trans_dist::CleanEvict             1141                       # Transaction distribution
system.membus.trans_dist::ReadExReq             38740                       # Transaction distribution
system.membus.trans_dist::ReadExResp            38740                       # Transaction distribution
system.membus.trans_dist::ReadSharedReq         18918                       # Transaction distribution
system.membus.trans_dist::InvalidateReq       8251698                       # Transaction distribution
system.membus.pkt_count_system.l2.mem_side::system.mem_ctrls.port     16643602                       # Packet count per connected master and slave (bytes)
system.membus.pkt_count::total               16643602                       # Packet count per connected master and slave (bytes)
system.membus.pkt_size_system.l2.mem_side::system.mem_ctrls.port    533318720                       # Cumulative packet size per connected master and slave (bytes)
system.membus.pkt_size::total               533318720                       # Cumulative packet size per connected master and slave (bytes)
system.membus.snoops                                0                       # Total snoops (count)
system.membus.snoopTraffic                          0                       # Total snoop traffic (bytes)
system.membus.snoop_fanout::samples           8309356                       # Request fanout histogram
system.membus.snoop_fanout::mean                    0                       # Request fanout histogram
system.membus.snoop_fanout::stdev                   0                       # Request fanout histogram
system.membus.snoop_fanout::underflows              0      0.00%      0.00% # Request fanout histogram
system.membus.snoop_fanout::0                 8309356    100.00%    100.00% # Request fanout histogram
system.membus.snoop_fanout::1                       0      0.00%    100.00% # Request fanout histogram
system.membus.snoop_fanout::overflows               0      0.00%    100.00% # Request fanout histogram
system.membus.snoop_fanout::min_value               0                       # Request fanout histogram
system.membus.snoop_fanout::max_value               0                       # Request fanout histogram
system.membus.snoop_fanout::total             8309356                       # Request fanout histogram
system.membus.reqLayer0.occupancy         52884636000                       # Layer occupancy (ticks)
system.membus.reqLayer0.utilization              26.3                       # Layer utilization (%)
system.membus.respLayer1.occupancy          308387750                       # Layer occupancy (ticks)
system.membus.respLayer1.utilization              0.2                       # Layer utilization (%)
system.membus.power_state.pwrStateResidencyTicks::UNDEFINED 200944379000                       # Cumulative time (in ticks) in various power states
system.tol2bus.trans_dist::ReadResp           1118593                       # Transaction distribution
system.tol2bus.trans_dist::WritebackDirty     16617864                       # Transaction distribution
system.tol2bus.trans_dist::WritebackClean      1075616                       # Transaction distribution
system.tol2bus.trans_dist::CleanEvict           17289                       # Transaction distribution
system.tol2bus.trans_dist::ReadExReq            64502                       # Transaction distribution
system.tol2bus.trans_dist::ReadExResp           64502                       # Transaction distribution
system.tol2bus.trans_dist::ReadCleanReq       1075873                       # Transaction distribution
system.tol2bus.trans_dist::ReadSharedReq        42721                       # Transaction distribution
system.tol2bus.trans_dist::InvalidateReq      8251706                       # Transaction distribution
system.tol2bus.trans_dist::InvalidateResp      8251706                       # Transaction distribution
system.tol2bus.pkt_count_system.cpu.icache.mem_side::system.l2.cpu_side      3227361                       # Packet count per connected master and slave (bytes)
system.tol2bus.pkt_count_system.cpu.dcache.mem_side::system.l2.cpu_side     25075763                       # Packet count per connected master and slave (bytes)
system.tol2bus.pkt_count::total              28303124                       # Packet count per connected master and slave (bytes)
system.tol2bus.pkt_size_system.cpu.icache.mem_side::system.l2.cpu_side    137695232                       # Cumulative packet size per connected master and slave (bytes)
system.tol2bus.pkt_size_system.cpu.dcache.mem_side::system.l2.cpu_side    540776960                       # Cumulative packet size per connected master and slave (bytes)
system.tol2bus.pkt_size::total              678472192                       # Cumulative packet size per connected master and slave (bytes)
system.tol2bus.snoops                         8277248                       # Total snoops (count)
system.tol2bus.snoopTraffic                 529628608                       # Total snoop traffic (bytes)
system.tol2bus.snoop_fanout::samples         17712050                       # Request fanout histogram
system.tol2bus.snoop_fanout::mean            0.000037                       # Request fanout histogram
system.tol2bus.snoop_fanout::stdev           0.006118                       # Request fanout histogram
system.tol2bus.snoop_fanout::underflows             0      0.00%      0.00% # Request fanout histogram
system.tol2bus.snoop_fanout::0               17711387    100.00%    100.00% # Request fanout histogram
system.tol2bus.snoop_fanout::1                    663      0.00%    100.00% # Request fanout histogram
system.tol2bus.snoop_fanout::2                      0      0.00%    100.00% # Request fanout histogram
system.tol2bus.snoop_fanout::overflows              0      0.00%    100.00% # Request fanout histogram
system.tol2bus.snoop_fanout::min_value              0                       # Request fanout histogram
system.tol2bus.snoop_fanout::max_value              1                       # Request fanout histogram
system.tol2bus.snoop_fanout::total           17712050                       # Request fanout histogram
system.tol2bus.reqLayer0.occupancy        18852194500                       # Layer occupancy (ticks)
system.tol2bus.reqLayer0.utilization              9.4                       # Layer utilization (%)
system.tol2bus.respLayer1.occupancy        4286698478                       # Layer occupancy (ticks)
system.tol2bus.respLayer1.utilization             2.1                       # Layer utilization (%)
system.tol2bus.respLayer0.occupancy        1613808499                       # Layer occupancy (ticks)
system.tol2bus.respLayer0.utilization             0.8                       # Layer utilization (%)
system.tol2bus.power_state.pwrStateResidencyTicks::UNDEFINED 200944379000                       # Cumulative time (in ticks) in various power states
system.voltage_domain.voltage                       1                       # Voltage in Volts
system.clk_domain.clock                          1000                       # Clock period in ticks
system.l2.demand_hits::.cpu.inst              1074089                       # number of demand (read+write) hits
system.l2.demand_hits::.cpu.data                51349                       # number of demand (read+write) hits
system.l2.demand_hits::total                  1125438                       # number of demand (read+write) hits
system.l2.overall_hits::.cpu.inst             1074089                       # number of overall hits
system.l2.overall_hits::.cpu.data               51349                       # number of overall hits
system.l2.overall_hits::total                 1125438                       # number of overall hits
system.l2.demand_misses::.cpu.inst               1784                       # number of demand (read+write) misses
system.l2.demand_misses::.cpu.data              55874                       # number of demand (read+write) misses
system.l2.demand_misses::total                  57658                       # number of demand (read+write) misses
system.l2.overall_misses::.cpu.inst              1784                       # number of overall misses
system.l2.overall_misses::.cpu.data             55874                       # number of overall misses
system.l2.overall_misses::total                 57658                       # number of overall misses
system.l2.demand_miss_latency::.cpu.inst    150522500                       # number of demand (read+write) miss cycles
system.l2.demand_miss_latency::.cpu.data   4710732000                       # number of demand (read+write) miss cycles
system.l2.demand_miss_latency::total       4861254500                       # number of demand (read+write) miss cycles
system.l2.overall_miss_latency::.cpu.inst    150522500                       # number of overall miss cycles
system.l2.overall_miss_latency::.cpu.data   4710732000                       # number of overall miss cycles
system.l2.overall_miss_latency::total      4861254500                       # number of overall miss cycles
system.l2.demand_accesses::.cpu.inst          1075873                       # number of demand (read+write) accesses
system.l2.demand_accesses::.cpu.data           107223                       # number of demand (read+write) accesses
system.l2.demand_accesses::total              1183096                       # number of demand (read+write) accesses
system.l2.overall_accesses::.cpu.inst         1075873                       # number of overall (read+write) accesses
system.l2.overall_accesses::.cpu.data          107223                       # number of overall (read+write) accesses
system.l2.overall_accesses::total             1183096                       # number of overall (read+write) accesses
system.l2.demand_miss_rate::.cpu.inst        0.001658                       # miss rate for demand accesses
system.l2.demand_miss_rate::.cpu.data        0.521101                       # miss rate for demand accesses
system.l2.demand_miss_rate::total            0.048735                       # miss rate for demand accesses
system.l2.overall_miss_rate::.cpu.inst       0.001658                       # miss rate for overall accesses
system.l2.overall_miss_rate::.cpu.data       0.521101                       # miss rate for overall accesses
system.l2.overall_miss_rate::total           0.048735                       # miss rate for overall accesses
system.l2.demand_avg_miss_latency::.cpu.inst 84373.598655                       # average overall miss latency
system.l2.demand_avg_miss_latency::.cpu.data 84309.911587                       # average overall miss latency
system.l2.demand_avg_miss_latency::total 84311.882133                       # average overall miss latency
system.l2.overall_avg_miss_latency::.cpu.inst 84373.598655                       # average overall miss latency
system.l2.overall_avg_miss_latency::.cpu.data 84309.911587                       # average overall miss latency
system.l2.overall_avg_miss_latency::total 84311.882133                       # average overall miss latency
system.l2.blocked_cycles::no_mshrs                  0                       # number of cycles access was blocked
system.l2.blocked_cycles::no_targets                0                       # number of cycles access was blocked
system.l2.blocked::no_mshrs                         0                       # number of cycles access was blocked
system.l2.blocked::no_targets                       0                       # number of cycles access was blocked
system.l2.avg_blocked_cycles::no_mshrs            nan                       # average number of cycles each access was blocked
system.l2.avg_blocked_cycles::no_targets          nan                       # average number of cycles each access was blocked
system.l2.writebacks::.writebacks             8275447                       # number of writebacks
system.l2.writebacks::total                   8275447                       # number of writebacks
system.l2.demand_mshr_misses::.cpu.inst          1784                       # number of demand (read+write) MSHR misses
system.l2.demand_mshr_misses::.cpu.data         55874                       # number of demand (read+write) MSHR misses
system.l2.demand_mshr_misses::total             57658                       # number of demand (read+write) MSHR misses
system.l2.overall_mshr_misses::.cpu.inst         1784                       # number of overall MSHR misses
system.l2.overall_mshr_misses::.cpu.data        55874                       # number of overall MSHR misses
system.l2.overall_mshr_misses::total            57658                       # number of overall MSHR misses
system.l2.demand_mshr_miss_latency::.cpu.inst    132682500                       # number of demand (read+write) MSHR miss cycles
system.l2.demand_mshr_miss_latency::.cpu.data   4151992000                       # number of demand (read+write) MSHR miss cycles
system.l2.demand_mshr_miss_latency::total   4284674500                       # number of demand (read+write) MSHR miss cycles
system.l2.overall_mshr_miss_latency::.cpu.inst    132682500                       # number of overall MSHR miss cycles
system.l2.overall_mshr_miss_latency::.cpu.data   4151992000                       # number of overall MSHR miss cycles
system.l2.overall_mshr_miss_latency::total   4284674500                       # number of overall MSHR miss cycles
system.l2.demand_mshr_miss_rate::.cpu.inst     0.001658                       # mshr miss rate for demand accesses
system.l2.demand_mshr_miss_rate::.cpu.data     0.521101                       # mshr miss rate for demand accesses
system.l2.demand_mshr_miss_rate::total       0.048735                       # mshr miss rate for demand accesses
system.l2.overall_mshr_miss_rate::.cpu.inst     0.001658                       # mshr miss rate for overall accesses
system.l2.overall_mshr_miss_rate::.cpu.data     0.521101                       # mshr miss rate for overall accesses
system.l2.overall_mshr_miss_rate::total      0.048735                       # mshr miss rate for overall accesses
system.l2.demand_avg_mshr_miss_latency::.cpu.inst 74373.598655                       # average overall mshr miss latency
system.l2.demand_avg_mshr_miss_latency::.cpu.data 74309.911587                       # average overall mshr miss latency
system.l2.demand_avg_mshr_miss_latency::total 74311.882133                       # average overall mshr miss latency
system.l2.overall_avg_mshr_miss_latency::.cpu.inst 74373.598655                       # average overall mshr miss latency
system.l2.overall_avg_mshr_miss_latency::.cpu.data 74309.911587                       # average overall mshr miss latency
system.l2.overall_avg_mshr_miss_latency::total 74311.882133                       # average overall mshr miss latency
system.l2.replacements                        8277248                       # number of replacements
system.l2.WritebackDirty_hits::.writebacks      8342417                       # number of WritebackDirty hits
system.l2.WritebackDirty_hits::total          8342417                       # number of WritebackDirty hits
system.l2.WritebackDirty_accesses::.writebacks      8342417                       # number of WritebackDirty accesses(hits+misses)
system.l2.WritebackDirty_accesses::total      8342417                       # number of WritebackDirty accesses(hits+misses)
system.l2.WritebackClean_hits::.writebacks      1075616                       # number of WritebackClean hits
system.l2.WritebackClean_hits::total          1075616                       # number of WritebackClean hits
system.l2.WritebackClean_accesses::.writebacks      1075616                       # number of WritebackClean accesses(hits+misses)
system.l2.WritebackClean_accesses::total      1075616                       # number of WritebackClean accesses(hits+misses)
system.l2.CleanEvict_mshr_misses::.writebacks            2                       # number of CleanEvict MSHR misses
system.l2.CleanEvict_mshr_misses::total             2                       # number of CleanEvict MSHR misses
system.l2.CleanEvict_mshr_miss_rate::.writebacks          inf                       # mshr miss rate for CleanEvict accesses
system.l2.CleanEvict_mshr_miss_rate::total          inf                       # mshr miss rate for CleanEvict accesses
system.l2.ReadExReq_hits::.cpu.data             25762                       # number of ReadExReq hits
system.l2.ReadExReq_hits::total                 25762                       # number of ReadExReq hits
system.l2.ReadExReq_misses::.cpu.data           38740                       # number of ReadExReq misses
system.l2.ReadExReq_misses::total               38740                       # number of ReadExReq misses
system.l2.ReadExReq_miss_latency::.cpu.data   3160740000                       # number of ReadExReq miss cycles
system.l2.ReadExReq_miss_latency::total    3160740000                       # number of ReadExReq miss cycles
system.l2.ReadExReq_accesses::.cpu.data         64502                       # number of ReadExReq accesses(hits+misses)
system.l2.ReadExReq_accesses::total             64502                       # number of ReadExReq accesses(hits+misses)
system.l2.ReadExReq_miss_rate::.cpu.data     0.600602                       # miss rate for ReadExReq accesses
system.l2.ReadExReq_miss_rate::total         0.600602                       # miss rate for ReadExReq accesses
system.l2.ReadExReq_avg_miss_latency::.cpu.data 81588.538978                       # average ReadExReq miss latency
system.l2.ReadExReq_avg_miss_latency::total 81588.538978                       # average ReadExReq miss latency
system.l2.ReadExReq_mshr_misses::.cpu.data        38740                       # number of ReadExReq MSHR misses
system.l2.ReadExReq_mshr_misses::total          38740                       # number of ReadExReq MSHR misses
system.l2.ReadExReq_mshr_miss_latency::.cpu.data   2773340000                       # number of ReadExReq MSHR miss cycles
system.l2.ReadExReq_mshr_miss_latency::total   2773340000                       # number of ReadExReq MSHR miss cycles
system.l2.ReadExReq_mshr_miss_rate::.cpu.data     0.600602                       # mshr miss rate for ReadExReq accesses
system.l2.ReadExReq_mshr_miss_rate::total     0.600602                       # mshr miss rate for ReadExReq accesses
system.l2.ReadExReq_avg_mshr_miss_latency::.cpu.data 71588.538978                       # average ReadExReq mshr miss latency
system.l2.ReadExReq_avg_mshr_miss_latency::total 71588.538978                       # average ReadExReq mshr miss latency
system.l2.ReadCleanReq_hits::.cpu.inst        1074089                       # number of ReadCleanReq hits
system.l2.ReadCleanReq_hits::total            1074089                       # number of ReadCleanReq hits
system.l2.ReadCleanReq_misses::.cpu.inst         1784                       # number of ReadCleanReq misses
system.l2.ReadCleanReq_misses::total             1784                       # number of ReadCleanReq misses
system.l2.ReadCleanReq_miss_latency::.cpu.inst    150522500                       # number of ReadCleanReq miss cycles
system.l2.ReadCleanReq_miss_latency::total    150522500                       # number of ReadCleanReq miss cycles
system.l2.ReadCleanReq_accesses::.cpu.inst      1075873                       # number of ReadCleanReq accesses(hits+misses)
system.l2.ReadCleanReq_accesses::total        1075873                       # number of ReadCleanReq accesses(hits+misses)
system.l2.ReadCleanReq_miss_rate::.cpu.inst     0.001658                       # miss rate for ReadCleanReq accesses
system.l2.ReadCleanReq_miss_rate::total      0.001658                       # miss rate for ReadCleanReq accesses
system.l2.ReadCleanReq_avg_miss_latency::.cpu.inst 84373.598655                       # average ReadCleanReq miss latency
system.l2.ReadCleanReq_avg_miss_latency::total 84373.598655                       # average ReadCleanReq miss latency
system.l2.ReadCleanReq_mshr_misses::.cpu.inst         1784                       # number of ReadCleanReq MSHR misses
system.l2.ReadCleanReq_mshr_misses::total         1784                       # number of ReadCleanReq MSHR misses
system.l2.ReadCleanReq_mshr_miss_latency::.cpu.inst    132682500                       # number of ReadCleanReq MSHR miss cycles
system.l2.ReadCleanReq_mshr_miss_latency::total    132682500                       # number of ReadCleanReq MSHR miss cycles
system.l2.ReadCleanReq_mshr_miss_rate::.cpu.inst     0.001658                       # mshr miss rate for ReadCleanReq accesses
system.l2.ReadCleanReq_mshr_miss_rate::total     0.001658                       # mshr miss rate for ReadCleanReq accesses
system.l2.ReadCleanReq_avg_mshr_miss_latency::.cpu.inst 74373.598655                       # average ReadCleanReq mshr miss latency
system.l2.ReadCleanReq_avg_mshr_miss_latency::total 74373.598655                       # average ReadCleanReq mshr miss latency
system.l2.ReadSharedReq_hits::.cpu.data         25587                       # number of ReadSharedReq hits
system.l2.ReadSharedReq_hits::total             25587                       # number of ReadSharedReq hits
system.l2.ReadSharedReq_misses::.cpu.data        17134                       # number of ReadSharedReq misses
system.l2.ReadSharedReq_misses::total           17134                       # number of ReadSharedReq misses
system.l2.ReadSharedReq_miss_latency::.cpu.data   1549992000                       # number of ReadSharedReq miss cycles
system.l2.ReadSharedReq_miss_latency::total   1549992000                       # number of ReadSharedReq miss cycles
system.l2.ReadSharedReq_accesses::.cpu.data        42721                       # number of ReadSharedReq accesses(hits+misses)
system.l2.ReadSharedReq_accesses::total         42721                       # number of ReadSharedReq accesses(hits+misses)
system.l2.ReadSharedReq_miss_rate::.cpu.data     0.401067                       # miss rate for ReadSharedReq accesses
system.l2.ReadSharedReq_miss_rate::total     0.401067                       # miss rate for ReadSharedReq accesses
system.l2.ReadSharedReq_avg_miss_latency::.cpu.data 90462.939185                       # average ReadSharedReq miss latency
system.l2.ReadSharedReq_avg_miss_latency::total 90462.939185                       # average ReadSharedReq miss latency
system.l2.ReadSharedReq_mshr_misses::.cpu.data        17134                       # number of ReadSharedReq MSHR misses
system.l2.ReadSharedReq_mshr_misses::total        17134                       # number of ReadSharedReq MSHR misses
system.l2.ReadSharedReq_mshr_miss_latency::.cpu.data   1378652000                       # number of ReadSharedReq MSHR miss cycles
system.l2.ReadSharedReq_mshr_miss_latency::total   1378652000                       # number of ReadSharedReq MSHR miss cycles
system.l2.ReadSharedReq_mshr_miss_rate::.cpu.data     0.401067                       # mshr miss rate for ReadSharedReq accesses
system.l2.ReadSharedReq_mshr_miss_rate::total     0.401067                       # mshr miss rate for ReadSharedReq accesses
system.l2.ReadSharedReq_avg_mshr_miss_latency::.cpu.data 80462.939185                       # average ReadSharedReq mshr miss latency
system.l2.ReadSharedReq_avg_mshr_miss_latency::total 80462.939185                       # average ReadSharedReq mshr miss latency
system.l2.InvalidateReq_hits::.cpu.data             8                       # number of InvalidateReq hits
system.l2.InvalidateReq_hits::total                 8                       # number of InvalidateReq hits
system.l2.InvalidateReq_misses::.cpu.data      8251698                       # number of InvalidateReq misses
system.l2.InvalidateReq_misses::total         8251698                       # number of InvalidateReq misses
system.l2.InvalidateReq_accesses::.cpu.data      8251706                       # number of InvalidateReq accesses(hits+misses)
system.l2.InvalidateReq_accesses::total       8251706                       # number of InvalidateReq accesses(hits+misses)
system.l2.InvalidateReq_miss_rate::.cpu.data     0.999999                       # miss rate for InvalidateReq accesses
system.l2.InvalidateReq_miss_rate::total     0.999999                       # miss rate for InvalidateReq accesses
system.l2.InvalidateReq_mshr_misses::.cpu.data      8251698                       # number of InvalidateReq MSHR misses
system.l2.InvalidateReq_mshr_misses::total      8251698                       # number of InvalidateReq MSHR misses
system.l2.InvalidateReq_mshr_miss_latency::.cpu.data 157251093000                       # number of InvalidateReq MSHR miss cycles
system.l2.InvalidateReq_mshr_miss_latency::total 157251093000                       # number of InvalidateReq MSHR miss cycles
system.l2.InvalidateReq_mshr_miss_rate::.cpu.data     0.999999                       # mshr miss rate for InvalidateReq accesses
system.l2.InvalidateReq_mshr_miss_rate::total     0.999999                       # mshr miss rate for InvalidateReq accesses
system.l2.InvalidateReq_avg_mshr_miss_latency::.cpu.data 19056.816306                       # average InvalidateReq mshr miss latency
system.l2.InvalidateReq_avg_mshr_miss_latency::total 19056.816306                       # average InvalidateReq mshr miss latency
system.l2.power_state.pwrStateResidencyTicks::UNDEFINED 200944379000                       # Cumulative time (in ticks) in various power states
system.l2.tags.tagsinuse                 32646.061033                       # Cycle average of tags in use
system.l2.tags.total_refs                    10616622                       # Total number of references to valid blocks.
system.l2.tags.sampled_refs                   8310024                       # Sample count of references to valid blocks.
system.l2.tags.avg_refs                      1.277568                       # Average number of references to valid blocks.
system.l2.tags.warmup_cycle                     77000                       # Cycle when the warmup percentage was hit.
system.l2.tags.occ_blocks::.writebacks   22267.863838                       # Average occupied blocks per requestor
system.l2.tags.occ_blocks::.cpu.inst       235.573477                       # Average occupied blocks per requestor
system.l2.tags.occ_blocks::.cpu.data     10142.623718                       # Average occupied blocks per requestor
system.l2.tags.occ_percent::.writebacks      0.679561                       # Average percentage of cache occupancy
system.l2.tags.occ_percent::.cpu.inst        0.007189                       # Average percentage of cache occupancy
system.l2.tags.occ_percent::.cpu.data        0.309528                       # Average percentage of cache occupancy
system.l2.tags.occ_percent::total            0.996279                       # Average percentage of cache occupancy
system.l2.tags.occ_task_id_blocks::1024         32768                       # Occupied blocks per task id
system.l2.tags.age_task_id_blocks_1024::1           18                       # Occupied blocks per task id
system.l2.tags.age_task_id_blocks_1024::2          192                       # Occupied blocks per task id
system.l2.tags.age_task_id_blocks_1024::3         2403                       # Occupied blocks per task id
system.l2.tags.age_task_id_blocks_1024::4        30155                       # Occupied blocks per task id
system.l2.tags.occ_task_id_percent::1024            1                       # Percentage of cache occupancy per task id
system.l2.tags.tag_accesses                 159256600                       # Number of tag accesses
system.l2.tags.data_accesses                159256600                       # Number of data accesses
system.l2.tags.power_state.pwrStateResidencyTicks::UNDEFINED 200944379000                       # Cumulative time (in ticks) in various power states
system.cpu_voltage_domain.voltage                   1                       # Voltage in Volts
system.mem_ctrls.bytes_read::.cpu.inst         114176                       # Number of bytes read from this memory
system.mem_ctrls.bytes_read::.cpu.data        3575936                       # Number of bytes read from this memory
system.mem_ctrls.bytes_read::total            3690112                       # Number of bytes read from this memory
system.mem_ctrls.bytes_inst_read::.cpu.inst       114176                       # Number of instructions bytes read from this memory
system.mem_ctrls.bytes_inst_read::total        114176                       # Number of instructions bytes read from this memory
system.mem_ctrls.bytes_written::.writebacks    529628608                       # Number of bytes written to this memory
system.mem_ctrls.bytes_written::total       529628608                       # Number of bytes written to this memory
system.mem_ctrls.num_reads::.cpu.inst            1784                       # Number of read requests responded to by this memory
system.mem_ctrls.num_reads::.cpu.data           55874                       # Number of read requests responded to by this memory
system.mem_ctrls.num_reads::total               57658                       # Number of read requests responded to by this memory
system.mem_ctrls.num_writes::.writebacks      8275447                       # Number of write requests responded to by this memory
system.mem_ctrls.num_writes::total            8275447                       # Number of write requests responded to by this memory
system.mem_ctrls.bw_read::.cpu.inst            568197                       # Total read bandwidth from this memory (bytes/s)
system.mem_ctrls.bw_read::.cpu.data          17795651                       # Total read bandwidth from this memory (bytes/s)
system.mem_ctrls.bw_read::total              18363848                       # Total read bandwidth from this memory (bytes/s)
system.mem_ctrls.bw_inst_read::.cpu.inst       568197                       # Instruction read bandwidth from this memory (bytes/s)
system.mem_ctrls.bw_inst_read::total           568197                       # Instruction read bandwidth from this memory (bytes/s)
system.mem_ctrls.bw_write::.writebacks     2635697553                       # Write bandwidth from this memory (bytes/s)
system.mem_ctrls.bw_write::total           2635697553                       # Write bandwidth from this memory (bytes/s)
system.mem_ctrls.bw_total::.writebacks     2635697553                       # Total bandwidth to/from this memory (bytes/s)
system.mem_ctrls.bw_total::.cpu.inst           568197                       # Total bandwidth to/from this memory (bytes/s)
system.mem_ctrls.bw_total::.cpu.data         17795651                       # Total bandwidth to/from this memory (bytes/s)
system.mem_ctrls.bw_total::total           2654061401                       # Total bandwidth to/from this memory (bytes/s)
system.mem_ctrls.avgPriority_.writebacks::samples   8275447.00                       # Average QoS priority value for accepted requests
system.mem_ctrls.avgPriority_.cpu.inst::samples      1784.00                       # Average QoS priority value for accepted requests
system.mem_ctrls.avgPriority_.cpu.data::samples     55874.00                       # Average QoS priority value for accepted requests
system.mem_ctrls.priorityMinLatency      0.000000018750                       # per QoS priority minimum request to response latency (s)
system.mem_ctrls.priorityMaxLatency      0.002093432500                       # per QoS priority maximum request to response latency (s)
system.mem_ctrls.numReadWriteTurnArounds       286399                       # Number of turnarounds from READ to WRITE
system.mem_ctrls.numWriteReadTurnArounds       286399                       # Number of turnarounds from WRITE to READ
system.mem_ctrls.numStayReadState             5135366                       # Number of times bus staying in READ state
system.mem_ctrls.numStayWriteState            8161764                       # Number of times bus staying in WRITE state
system.mem_ctrls.readReqs                       57658                       # Number of read requests accepted
system.mem_ctrls.writeReqs                    8275447                       # Number of write requests accepted
system.mem_ctrls.readBursts                     57658                       # Number of DRAM read bursts, including those serviced by the write queue
system.mem_ctrls.writeBursts                  8275447                       # Number of DRAM write bursts, including those merged in the write queue
system.mem_ctrls.servicedByWrQ                      0                       # Number of DRAM read bursts serviced by the write queue
system.mem_ctrls.mergedWrBursts                     0                       # Number of DRAM write bursts merged with an existing one
system.mem_ctrls.neitherReadNorWriteReqs            0                       # Number of requests that are neither read nor write
system.mem_ctrls.perBankRdBursts::0              3541                       # Per bank write bursts
system.mem_ctrls.perBankRdBursts::1              3549                       # Per bank write bursts
system.mem_ctrls.perBankRdBursts::2              3313                       # Per bank write bursts
system.mem_ctrls.perBankRdBursts::3              3563                       # Per bank write bursts
system.mem_ctrls.perBankRdBursts::4              3859                       # Per bank write bursts
system.mem_ctrls.perBankRdBursts::5              3713                       # Per bank write bursts
system.mem_ctrls.perBankRdBursts::6              3611                       # Per bank write bursts
system.mem_ctrls.perBankRdBursts::7              3501                       # Per bank write bursts
system.mem_ctrls.perBankRdBursts::8              3826                       # Per bank write bursts
system.mem_ctrls.perBankRdBursts::9              3649                       # Per bank write bursts
system.mem_ctrls.perBankRdBursts::10             3621                       # Per bank write bursts
system.mem_ctrls.perBankRdBursts::11             3526                       # Per bank write bursts
system.mem_ctrls.perBankRdBursts::12             3531                       # Per bank write bursts
system.mem_ctrls.perBankRdBursts::13             3543                       # Per bank write bursts
system.mem_ctrls.perBankRdBursts::14             3680                       # Per bank write bursts
system.mem_ctrls.perBankRdBursts::15             3632                       # Per bank write bursts
system.mem_ctrls.perBankWrBursts::0            517172                       # Per bank write bursts
system.mem_ctrls.perBankWrBursts::1            517136                       # Per bank write bursts
system.mem_ctrls.perBankWrBursts::2            516840                       # Per bank write bursts
system.mem_ctrls.perBankWrBursts::3            517091                       # Per bank write bursts
system.mem_ctrls.perBankWrBursts::4            517382                       # Per bank write bursts
system.mem_ctrls.perBankWrBursts::5            517411                       # Per bank write bursts
system.mem_ctrls.perBankWrBursts::6            517335                       # Per bank write bursts
system.mem_ctrls.perBankWrBursts::7            517271                       # Per bank write bursts
system.mem_ctrls.perBankWrBursts::8            517555                       # Per bank write bursts
system.mem_ctrls.perBankWrBursts::9            517354                       # Per bank write bursts
system.mem_ctrls.perBankWrBursts::10           517201                       # Per bank write bursts
system.mem_ctrls.perBankWrBursts::11           517103                       # Per bank write bursts
system.mem_ctrls.perBankWrBursts::12           517096                       # Per bank write bursts
system.mem_ctrls.perBankWrBursts::13           517166                       # Per bank write bursts
system.mem_ctrls.perBankWrBursts::14           517134                       # Per bank write bursts
system.mem_ctrls.perBankWrBursts::15           517182                       # Per bank write bursts
system.mem_ctrls.avgRdQLen                       1.00                       # Average read queue length when enqueuing
system.mem_ctrls.avgWrQLen                      24.57                       # Average write queue length when enqueuing
system.mem_ctrls.totQLat                    829367250                       # Total ticks spent queuing
system.mem_ctrls.totBusLat                  288290000                       # Total ticks spent in databus transfers
system.mem_ctrls.totMemAccLat              1910454750                       # Total ticks spent from burst creation until serviced by the DRAM
system.mem_ctrls.avgQLat                     14384.25                       # Average queueing delay per DRAM burst
system.mem_ctrls.avgBusLat                    5000.00                       # Average bus latency per DRAM burst
system.mem_ctrls.avgMemAccLat                33134.25                       # Average memory access latency per DRAM burst
system.mem_ctrls.numRdRetry                         0                       # Number of times read queue was full causing retry
system.mem_ctrls.numWrRetry                         0                       # Number of times write queue was full causing retry
system.mem_ctrls.readRowHits                    36220                       # Number of row buffer hits during reads
system.mem_ctrls.writeRowHits                 7724101                       # Number of row buffer hits during writes
system.mem_ctrls.readRowHitRate                 62.82                       # Row buffer hit rate for reads
system.mem_ctrls.writeRowHitRate                93.34                       # Row buffer hit rate for writes
system.mem_ctrls.readPktSize::0                     0                       # Read request sizes (log2)
system.mem_ctrls.readPktSize::1                     0                       # Read request sizes (log2)
system.mem_ctrls.readPktSize::2                     0                       # Read request sizes (log2)
system.mem_ctrls.readPktSize::3                     0                       # Read request sizes (log2)
system.mem_ctrls.readPktSize::4                     0                       # Read request sizes (log2)
system.mem_ctrls.readPktSize::5                     0                       # Read request sizes (log2)
system.mem_ctrls.readPktSize::6                 57658                       # Read request sizes (log2)
system.mem_ctrls.writePktSize::0                    0                       # Write request sizes (log2)
system.mem_ctrls.writePktSize::1                    0                       # Write request sizes (log2)
system.mem_ctrls.writePktSize::2                    0                       # Write request sizes (log2)
system.mem_ctrls.writePktSize::3                    0                       # Write request sizes (log2)
system.mem_ctrls.writePktSize::4                    0                       # Write request sizes (log2)
system.mem_ctrls.writePktSize::5                    0                       # Write request sizes (log2)
system.mem_ctrls.writePktSize::6              8275447                       # Write request sizes (log2)
system.mem_ctrls.rdQLenPdf::0                   56051                       # What read queue length does an incoming req see
system.mem_ctrls.rdQLenPdf::1                    1564                       # What read queue length does an incoming req see
system.mem_ctrls.rdQLenPdf::2                      43                       # What read queue length does an incoming req see
system.mem_ctrls.rdQLenPdf::3                       0                       # What read queue length does an incoming req see
system.mem_ctrls.rdQLenPdf::4                       0                       # What read queue length does an incoming req see
system.mem_ctrls.rdQLenPdf::5                       0                       # What read queue length does an incoming req see
system.mem_ctrls.rdQLenPdf::6                       0                       # What read queue length does an incoming req see
system.mem_ctrls.rdQLenPdf::7                       0                       # What read queue length does an incoming req see
system.mem_ctrls.rdQLenPdf::8                       0                       # What read queue length does an incoming req see
system.mem_ctrls.rdQLenPdf::9                       0                       # What read queue length does an incoming req see
system.mem_ctrls.rdQLenPdf::10                      0                       # What read queue length does an incoming req see
system.mem_ctrls.rdQLenPdf::11                      0                       # What read queue length does an incoming req see
system.mem_ctrls.rdQLenPdf::12                      0                       # What read queue length does an incoming req see
system.mem_ctrls.rdQLenPdf::13                      0                       # What read queue length does an incoming req see
system.mem_ctrls.rdQLenPdf::14                      0                       # What read queue length does an incoming req see
system.mem_ctrls.rdQLenPdf::15                      0                       # What read queue length does an incoming req see
system.mem_ctrls.rdQLenPdf::16                      0                       # What read queue length does an incoming req see
system.mem_ctrls.rdQLenPdf::17                      0                       # What read queue length does an incoming req see
system.mem_ctrls.rdQLenPdf::18                      0                       # What read queue length does an incoming req see
system.mem_ctrls.rdQLenPdf::19                      0                       # What read queue length does an incoming req see
system.mem_ctrls.rdQLenPdf::20                      0                       # What read queue length does an incoming req see
system.mem_ctrls.rdQLenPdf::21                      0                       # What read queue length does an incoming req see
system.mem_ctrls.rdQLenPdf::22                      0                       # What read queue length does an incoming req see
system.mem_ctrls.rdQLenPdf::23                      0                       # What read queue length does an incoming req see
system.mem_ctrls.rdQLenPdf::24                      0                       # What read queue length does an incoming req see
system.mem_ctrls.rdQLenPdf::25                      0                       # What read queue length does an incoming req see
system.mem_ctrls.rdQLenPdf::26                      0                       # What read queue length does an incoming req see
system.mem_ctrls.rdQLenPdf::27                      0                       # What read queue length does an incoming req see
system.mem_ctrls.rdQLenPdf::28                      0                       # What read queue length does an incoming req see
system.mem_ctrls.rdQLenPdf::29                      0                       # What read queue length does an incoming req see
system.mem_ctrls.rdQLenPdf::30                      0                       # What read queue length does an incoming req see
system.mem_ctrls.rdQLenPdf::31                      0                       # What read queue length does an incoming req see
system.mem_ctrls.wrQLenPdf::0                       1                       # What write queue length does an incoming req see
system.mem_ctrls.wrQLenPdf::1                       1                       # What write queue length does an incoming req see
system.mem_ctrls.wrQLenPdf::2                       1                       # What write queue length does an incoming req see
system.mem_ctrls.wrQLenPdf::3                       1                       # What write queue length does an incoming req see
system.mem_ctrls.wrQLenPdf::4                       1                       # What write queue length does an incoming req see
system.mem_ctrls.wrQLenPdf::5                       1                       # What write queue length does an incoming req see
system.mem_ctrls.wrQLenPdf::6                       1                       # What write queue length does an incoming req see
system.mem_ctrls.wrQLenPdf::7                       1                       # What write queue length does an incoming req see
system.mem_ctrls.wrQLenPdf::8                       1                       # What write queue length does an incoming req see
system.mem_ctrls.wrQLenPdf::9                       1                       # What write queue length does an incoming req see
system.mem_ctrls.wrQLenPdf::10                      1                       # What write queue length does an incoming req see
system.mem_ctrls.wrQLenPdf::11                      1                       # What write queue length does an incoming req see
system.mem_ctrls.wrQLenPdf::12                      1                       # What write queue length does an incoming req see
system.mem_ctrls.wrQLenPdf::13                      1                       # What write queue length does an incoming req see
system.mem_ctrls.wrQLenPdf::14                      1                       # What write queue length does an incoming req see
system.mem_ctrls.wrQLenPdf::15                 283779                       # What write queue length does an incoming req see
system.mem_ctrls.wrQLenPdf::16                 337618                       # What write queue length does an incoming req see
system.mem_ctrls.wrQLenPdf::17                 508425                       # What write queue length does an incoming req see
system.mem_ctrls.wrQLenPdf::18                 525103                       # What write queue length does an incoming req see
system.mem_ctrls.wrQLenPdf::19                 472723                       # What write queue length does an incoming req see
system.mem_ctrls.wrQLenPdf::20                 692048                       # What write queue length does an incoming req see
system.mem_ctrls.wrQLenPdf::21                 549776                       # What write queue length does an incoming req see
system.mem_ctrls.wrQLenPdf::22                 565377                       # What write queue length does an incoming req see
system.mem_ctrls.wrQLenPdf::23                 397052                       # What write queue length does an incoming req see
system.mem_ctrls.wrQLenPdf::24                 614698                       # What write queue length does an incoming req see
system.mem_ctrls.wrQLenPdf::25                 371744                       # What write queue length does an incoming req see
system.mem_ctrls.wrQLenPdf::26                 450230                       # What write queue length does an incoming req see
system.mem_ctrls.wrQLenPdf::27                 412961                       # What write queue length does an incoming req see
system.mem_ctrls.wrQLenPdf::28                 524657                       # What write queue length does an incoming req see
system.mem_ctrls.wrQLenPdf::29                 363221                       # What write queue length does an incoming req see
system.mem_ctrls.wrQLenPdf::30                 363174                       # What write queue length does an incoming req see
system.mem_ctrls.wrQLenPdf::31                 327310                       # What write queue length does an incoming req see
system.mem_ctrls.wrQLenPdf::32                 319725                       # What write queue length does an incoming req see
system.mem_ctrls.wrQLenPdf::33                  28480                       # What write queue length does an incoming req see
system.mem_ctrls.wrQLenPdf::34                  25127                       # What write queue length does an incoming req see
system.mem_ctrls.wrQLenPdf::35                  23293                       # What write queue length does an incoming req see
system.mem_ctrls.wrQLenPdf::36                  19589                       # What write queue length does an incoming req see
system.mem_ctrls.wrQLenPdf::37                  17884                       # What write queue length does an incoming req see
system.mem_ctrls.wrQLenPdf::38                  14167                       # What write queue length does an incoming req see
system.mem_ctrls.wrQLenPdf::39                  15053                       # What write queue length does an incoming req see
system.mem_ctrls.wrQLenPdf::40                  10894                       # What write queue length does an incoming req see
system.mem_ctrls.wrQLenPdf::41                  10088                       # What write queue length does an incoming req see
system.mem_ctrls.wrQLenPdf::42                   7575                       # What write queue length does an incoming req see
system.mem_ctrls.wrQLenPdf::43                   7091                       # What write queue length does an incoming req see
system.mem_ctrls.wrQLenPdf::44                   5059                       # What write queue length does an incoming req see
system.mem_ctrls.wrQLenPdf::45                   4043                       # What write queue length does an incoming req see
system.mem_ctrls.wrQLenPdf::46                   2920                       # What write queue length does an incoming req see
system.mem_ctrls.wrQLenPdf::47                   1882                       # What write queue length does an incoming req see
system.mem_ctrls.wrQLenPdf::48                   1598                       # What write queue length does an incoming req see
system.mem_ctrls.wrQLenPdf::49                    510                       # What write queue length does an incoming req see
system.mem_ctrls.wrQLenPdf::50                    352                       # What write queue length does an incoming req see
system.mem_ctrls.wrQLenPdf::51                    136                       # What write queue length does an incoming req see
system.mem_ctrls.wrQLenPdf::52                     70                       # What write queue length does an incoming req see
system.mem_ctrls.wrQLenPdf::53                      0                       # What write queue length does an incoming req see
system.mem_ctrls.wrQLenPdf::54                      0                       # What write queue length does an incoming req see
system.mem_ctrls.wrQLenPdf::55                      0                       # What write queue length does an incoming req see
system.mem_ctrls.wrQLenPdf::56                      0                       # What write queue length does an incoming req see
system.mem_ctrls.wrQLenPdf::57                      0                       # What write queue length does an incoming req see
system.mem_ctrls.wrQLenPdf::58                      0                       # What write queue length does an incoming req see
system.mem_ctrls.wrQLenPdf::59                      0                       # What write queue length does an incoming req see
system.mem_ctrls.wrQLenPdf::60                      0                       # What write queue length does an incoming req see
system.mem_ctrls.wrQLenPdf::61                      0                       # What write queue length does an incoming req see
system.mem_ctrls.wrQLenPdf::62                      0                       # What write queue length does an incoming req see
system.mem_ctrls.wrQLenPdf::63                      0                       # What write queue length does an incoming req see
system.mem_ctrls.bytesPerActivate::samples       572766                       # Bytes accessed per row activation
system.mem_ctrls.bytesPerActivate::mean    931.126443                       # Bytes accessed per row activation
system.mem_ctrls.bytesPerActivate::gmean   814.499695                       # Bytes accessed per row activation
system.mem_ctrls.bytesPerActivate::stdev   264.869212                       # Bytes accessed per row activation
system.mem_ctrls.bytesPerActivate::0-127        36141      6.31%      6.31% # Bytes accessed per row activation
system.mem_ctrls.bytesPerActivate::128-255         6316      1.10%      7.41% # Bytes accessed per row activation
system.mem_ctrls.bytesPerActivate::256-383         5608      0.98%      8.39% # Bytes accessed per row activation
system.mem_ctrls.bytesPerActivate::384-511         6017      1.05%      9.44% # Bytes accessed per row activation
system.mem_ctrls.bytesPerActivate::512-639         5600      0.98%     10.42% # Bytes accessed per row activation
system.mem_ctrls.bytesPerActivate::640-767         5168      0.90%     11.32% # Bytes accessed per row activation
system.mem_ctrls.bytesPerActivate::768-895         2478      0.43%     11.75% # Bytes accessed per row activation
system.mem_ctrls.bytesPerActivate::896-1023         6731      1.18%     12.93% # Bytes accessed per row activation
[...]
system.cpu.dcache.overall_accesses::.cpu.data     26131820                       # number of overall (read+write) accesses
system.cpu.dcache.overall_accesses::total     26131820                       # number of overall (read+write) accesses
system.cpu.dcache.demand_miss_rate::.cpu.data     0.322016                       # miss rate for demand accesses
system.cpu.dcache.demand_miss_rate::total     0.322016                       # miss rate for demand accesses
system.cpu.dcache.overall_miss_rate::.cpu.data     0.322016                       # miss rate for overall accesses
system.cpu.dcache.overall_miss_rate::total     0.322016                       # miss rate for overall accesses
system.cpu.dcache.demand_avg_miss_latency::.cpu.data 32035.473771                       # average overall miss latency
system.cpu.dcache.demand_avg_miss_latency::total 32035.473771                       # average overall miss latency
system.cpu.dcache.overall_avg_miss_latency::.cpu.data 32035.462350                       # average overall miss latency
system.cpu.dcache.overall_avg_miss_latency::total 32035.462350                       # average overall miss latency
system.cpu.dcache.blocked_cycles::no_mshrs            0                       # number of cycles access was blocked
system.cpu.dcache.blocked_cycles::no_targets            0                       # number of cycles access was blocked
system.cpu.dcache.blocked::no_mshrs                 0                       # number of cycles access was blocked
system.cpu.dcache.blocked::no_targets               0                       # number of cycles access was blocked
system.cpu.dcache.avg_blocked_cycles::no_mshrs          nan                       # average number of cycles each access was blocked
system.cpu.dcache.avg_blocked_cycles::no_targets          nan                       # average number of cycles each access was blocked
system.cpu.dcache.writebacks::.writebacks      8342417                       # number of writebacks
system.cpu.dcache.writebacks::total           8342417                       # number of writebacks
system.cpu.dcache.demand_mshr_hits::.cpu.data        55926                       # number of demand (read+write) MSHR hits
system.cpu.dcache.demand_mshr_hits::total        55926                       # number of demand (read+write) MSHR hits
system.cpu.dcache.overall_mshr_hits::.cpu.data        55926                       # number of overall MSHR hits
system.cpu.dcache.overall_mshr_hits::total        55926                       # number of overall MSHR hits
system.cpu.dcache.demand_mshr_misses::.cpu.data      8358925                       # number of demand (read+write) MSHR misses
system.cpu.dcache.demand_mshr_misses::total      8358925                       # number of demand (read+write) MSHR misses
system.cpu.dcache.overall_mshr_misses::.cpu.data      8358928                       # number of overall MSHR misses
system.cpu.dcache.overall_mshr_misses::total      8358928                       # number of overall MSHR misses
system.cpu.dcache.demand_mshr_miss_latency::.cpu.data 258037250000                       # number of demand (read+write) MSHR miss cycles
system.cpu.dcache.demand_mshr_miss_latency::total 258037250000                       # number of demand (read+write) MSHR miss cycles
system.cpu.dcache.overall_mshr_miss_latency::.cpu.data 258037512000                       # number of overall MSHR miss cycles
system.cpu.dcache.overall_mshr_miss_latency::total 258037512000                       # number of overall MSHR miss cycles
system.cpu.dcache.demand_mshr_miss_rate::.cpu.data     0.319876                       # mshr miss rate for demand accesses
system.cpu.dcache.demand_mshr_miss_rate::total     0.319876                       # mshr miss rate for demand accesses
system.cpu.dcache.overall_mshr_miss_rate::.cpu.data     0.319875                       # mshr miss rate for overall accesses
system.cpu.dcache.overall_mshr_miss_rate::total     0.319875                       # mshr miss rate for overall accesses
system.cpu.dcache.demand_avg_mshr_miss_latency::.cpu.data 30869.669246                       # average overall mshr miss latency
system.cpu.dcache.demand_avg_mshr_miss_latency::total 30869.669246                       # average overall mshr miss latency
system.cpu.dcache.overall_avg_mshr_miss_latency::.cpu.data 30869.689510                       # average overall mshr miss latency
system.cpu.dcache.overall_avg_mshr_miss_latency::total 30869.689510                       # average overall mshr miss latency
system.cpu.dcache.replacements                8357905                       # number of replacements
system.cpu.dcache.ReadReq_hits::.cpu.data     12448425                       # number of ReadReq hits
system.cpu.dcache.ReadReq_hits::total        12448425                       # number of ReadReq hits
system.cpu.dcache.ReadReq_misses::.cpu.data        43247                       # number of ReadReq misses
system.cpu.dcache.ReadReq_misses::total         43247                       # number of ReadReq misses
system.cpu.dcache.ReadReq_miss_latency::.cpu.data   1935744500                       # number of ReadReq miss cycles
system.cpu.dcache.ReadReq_miss_latency::total   1935744500                       # number of ReadReq miss cycles
system.cpu.dcache.ReadReq_accesses::.cpu.data     12491672                       # number of ReadReq accesses(hits+misses)
system.cpu.dcache.ReadReq_accesses::total     12491672                       # number of ReadReq accesses(hits+misses)
system.cpu.dcache.ReadReq_miss_rate::.cpu.data     0.003462                       # miss rate for ReadReq accesses
system.cpu.dcache.ReadReq_miss_rate::total     0.003462                       # miss rate for ReadReq accesses
system.cpu.dcache.ReadReq_avg_miss_latency::.cpu.data 44760.203020                       # average ReadReq miss latency
system.cpu.dcache.ReadReq_avg_miss_latency::total 44760.203020                       # average ReadReq miss latency
system.cpu.dcache.ReadReq_mshr_hits::.cpu.data          530                       # number of ReadReq MSHR hits
system.cpu.dcache.ReadReq_mshr_hits::total          530                       # number of ReadReq MSHR hits
system.cpu.dcache.ReadReq_mshr_misses::.cpu.data        42717                       # number of ReadReq MSHR misses
system.cpu.dcache.ReadReq_mshr_misses::total        42717                       # number of ReadReq MSHR misses
system.cpu.dcache.ReadReq_mshr_miss_latency::.cpu.data   1884793500                       # number of ReadReq MSHR miss cycles
system.cpu.dcache.ReadReq_mshr_miss_latency::total   1884793500                       # number of ReadReq MSHR miss cycles
system.cpu.dcache.ReadReq_mshr_miss_rate::.cpu.data     0.003420                       # mshr miss rate for ReadReq accesses
system.cpu.dcache.ReadReq_mshr_miss_rate::total     0.003420                       # mshr miss rate for ReadReq accesses
system.cpu.dcache.ReadReq_avg_mshr_miss_latency::.cpu.data 44122.796545                       # average ReadReq mshr miss latency
system.cpu.dcache.ReadReq_avg_mshr_miss_latency::total 44122.796545                       # average ReadReq mshr miss latency
system.cpu.dcache.WriteReq_hits::.cpu.data      5268517                       # number of WriteReq hits
system.cpu.dcache.WriteReq_hits::total        5268517                       # number of WriteReq hits
system.cpu.dcache.WriteReq_misses::.cpu.data       119898                       # number of WriteReq misses
system.cpu.dcache.WriteReq_misses::total       119898                       # number of WriteReq misses
system.cpu.dcache.WriteReq_miss_latency::.cpu.data   6762429000                       # number of WriteReq miss cycles
system.cpu.dcache.WriteReq_miss_latency::total   6762429000                       # number of WriteReq miss cycles
system.cpu.dcache.WriteReq_accesses::.cpu.data      5388415                       # number of WriteReq accesses(hits+misses)
system.cpu.dcache.WriteReq_accesses::total      5388415                       # number of WriteReq accesses(hits+misses)
system.cpu.dcache.WriteReq_miss_rate::.cpu.data     0.022251                       # miss rate for WriteReq accesses
system.cpu.dcache.WriteReq_miss_rate::total     0.022251                       # miss rate for WriteReq accesses
system.cpu.dcache.WriteReq_avg_miss_latency::.cpu.data 56401.516289                       # average WriteReq miss latency
system.cpu.dcache.WriteReq_avg_miss_latency::total 56401.516289                       # average WriteReq miss latency
system.cpu.dcache.WriteReq_mshr_hits::.cpu.data        55396                       # number of WriteReq MSHR hits
system.cpu.dcache.WriteReq_mshr_hits::total        55396                       # number of WriteReq MSHR hits
system.cpu.dcache.WriteReq_mshr_misses::.cpu.data        64502                       # number of WriteReq MSHR misses
system.cpu.dcache.WriteReq_mshr_misses::total        64502                       # number of WriteReq MSHR misses
system.cpu.dcache.WriteReq_mshr_miss_latency::.cpu.data   3528597500                       # number of WriteReq MSHR miss cycles
system.cpu.dcache.WriteReq_mshr_miss_latency::total   3528597500                       # number of WriteReq MSHR miss cycles
system.cpu.dcache.WriteReq_mshr_miss_rate::.cpu.data     0.011970                       # mshr miss rate for WriteReq accesses
system.cpu.dcache.WriteReq_mshr_miss_rate::total     0.011970                       # mshr miss rate for WriteReq accesses
system.cpu.dcache.WriteReq_avg_mshr_miss_latency::.cpu.data 54705.241698                       # average WriteReq mshr miss latency
system.cpu.dcache.WriteReq_avg_mshr_miss_latency::total 54705.241698                       # average WriteReq mshr miss latency
system.cpu.dcache.SoftPFReq_hits::.cpu.data           17                       # number of SoftPFReq hits
system.cpu.dcache.SoftPFReq_hits::total            17                       # number of SoftPFReq hits
system.cpu.dcache.SoftPFReq_misses::.cpu.data            3                       # number of SoftPFReq misses
system.cpu.dcache.SoftPFReq_misses::total            3                       # number of SoftPFReq misses
system.cpu.dcache.SoftPFReq_accesses::.cpu.data           20                       # number of SoftPFReq accesses(hits+misses)
system.cpu.dcache.SoftPFReq_accesses::total           20                       # number of SoftPFReq accesses(hits+misses)
system.cpu.dcache.SoftPFReq_miss_rate::.cpu.data     0.150000                       # miss rate for SoftPFReq accesses
system.cpu.dcache.SoftPFReq_miss_rate::total     0.150000                       # miss rate for SoftPFReq accesses
system.cpu.dcache.SoftPFReq_mshr_misses::.cpu.data            3                       # number of SoftPFReq MSHR misses
system.cpu.dcache.SoftPFReq_mshr_misses::total            3                       # number of SoftPFReq MSHR misses
system.cpu.dcache.SoftPFReq_mshr_miss_latency::.cpu.data       262000                       # number of SoftPFReq MSHR miss cycles
system.cpu.dcache.SoftPFReq_mshr_miss_latency::total       262000                       # number of SoftPFReq MSHR miss cycles
system.cpu.dcache.SoftPFReq_mshr_miss_rate::.cpu.data     0.150000                       # mshr miss rate for SoftPFReq accesses
system.cpu.dcache.SoftPFReq_mshr_miss_rate::total     0.150000                       # mshr miss rate for SoftPFReq accesses
system.cpu.dcache.SoftPFReq_avg_mshr_miss_latency::.cpu.data 87333.333333                       # average SoftPFReq mshr miss latency
system.cpu.dcache.SoftPFReq_avg_mshr_miss_latency::total 87333.333333                       # average SoftPFReq mshr miss latency
system.cpu.dcache.WriteLineReq_hits::.cpu.data            7                       # number of WriteLineReq hits
system.cpu.dcache.WriteLineReq_hits::total            7                       # number of WriteLineReq hits
system.cpu.dcache.WriteLineReq_misses::.cpu.data      8251706                       # number of WriteLineReq misses
system.cpu.dcache.WriteLineReq_misses::total      8251706                       # number of WriteLineReq misses
system.cpu.dcache.WriteLineReq_miss_latency::.cpu.data 260875565000                       # number of WriteLineReq miss cycles
system.cpu.dcache.WriteLineReq_miss_latency::total 260875565000                       # number of WriteLineReq miss cycles
system.cpu.dcache.WriteLineReq_accesses::.cpu.data      8251713                       # number of WriteLineReq accesses(hits+misses)
system.cpu.dcache.WriteLineReq_accesses::total      8251713                       # number of WriteLineReq accesses(hits+misses)
system.cpu.dcache.WriteLineReq_miss_rate::.cpu.data     0.999999                       # miss rate for WriteLineReq accesses
system.cpu.dcache.WriteLineReq_miss_rate::total     0.999999                       # miss rate for WriteLineReq accesses
system.cpu.dcache.WriteLineReq_avg_miss_latency::.cpu.data 31614.743060                       # average WriteLineReq miss latency
system.cpu.dcache.WriteLineReq_avg_miss_latency::total 31614.743060                       # average WriteLineReq miss latency
system.cpu.dcache.WriteLineReq_mshr_misses::.cpu.data      8251706                       # number of WriteLineReq MSHR misses
system.cpu.dcache.WriteLineReq_mshr_misses::total      8251706                       # number of WriteLineReq MSHR misses
system.cpu.dcache.WriteLineReq_mshr_miss_latency::.cpu.data 252623859000                       # number of WriteLineReq MSHR miss cycles
system.cpu.dcache.WriteLineReq_mshr_miss_latency::total 252623859000                       # number of WriteLineReq MSHR miss cycles
system.cpu.dcache.WriteLineReq_mshr_miss_rate::.cpu.data     0.999999                       # mshr miss rate for WriteLineReq accesses
system.cpu.dcache.WriteLineReq_mshr_miss_rate::total     0.999999                       # mshr miss rate for WriteLineReq accesses
system.cpu.dcache.WriteLineReq_avg_mshr_miss_latency::.cpu.data 30614.743060                       # average WriteLineReq mshr miss latency
system.cpu.dcache.WriteLineReq_avg_mshr_miss_latency::total 30614.743060                       # average WriteLineReq mshr miss latency
system.cpu.dcache.LoadLockedReq_hits::.cpu.data          297                       # number of LoadLockedReq hits
system.cpu.dcache.LoadLockedReq_hits::total          297                       # number of LoadLockedReq hits
system.cpu.dcache.LoadLockedReq_misses::.cpu.data            1                       # number of LoadLockedReq misses
system.cpu.dcache.LoadLockedReq_misses::total            1                       # number of LoadLockedReq misses
system.cpu.dcache.LoadLockedReq_miss_latency::.cpu.data        86000                       # number of LoadLockedReq miss cycles
system.cpu.dcache.LoadLockedReq_miss_latency::total        86000                       # number of LoadLockedReq miss cycles
system.cpu.dcache.LoadLockedReq_accesses::.cpu.data          298                       # number of LoadLockedReq accesses(hits+misses)
system.cpu.dcache.LoadLockedReq_accesses::total          298                       # number of LoadLockedReq accesses(hits+misses)
system.cpu.dcache.LoadLockedReq_miss_rate::.cpu.data     0.003356                       # miss rate for LoadLockedReq accesses
system.cpu.dcache.LoadLockedReq_miss_rate::total     0.003356                       # miss rate for LoadLockedReq accesses
system.cpu.dcache.LoadLockedReq_avg_miss_latency::.cpu.data        86000                       # average LoadLockedReq miss latency
system.cpu.dcache.LoadLockedReq_avg_miss_latency::total        86000                       # average LoadLockedReq miss latency
system.cpu.dcache.LoadLockedReq_mshr_misses::.cpu.data            1                       # number of LoadLockedReq MSHR misses
system.cpu.dcache.LoadLockedReq_mshr_misses::total            1                       # number of LoadLockedReq MSHR misses
system.cpu.dcache.LoadLockedReq_mshr_miss_latency::.cpu.data        85000                       # number of LoadLockedReq MSHR miss cycles
system.cpu.dcache.LoadLockedReq_mshr_miss_latency::total        85000                       # number of LoadLockedReq MSHR miss cycles
system.cpu.dcache.LoadLockedReq_mshr_miss_rate::.cpu.data     0.003356                       # mshr miss rate for LoadLockedReq accesses
system.cpu.dcache.LoadLockedReq_mshr_miss_rate::total     0.003356                       # mshr miss rate for LoadLockedReq accesses
system.cpu.dcache.LoadLockedReq_avg_mshr_miss_latency::.cpu.data        85000                       # average LoadLockedReq mshr miss latency
system.cpu.dcache.LoadLockedReq_avg_mshr_miss_latency::total        85000                       # average LoadLockedReq mshr miss latency
system.cpu.dcache.StoreCondReq_hits::.cpu.data          298                       # number of StoreCondReq hits
system.cpu.dcache.StoreCondReq_hits::total          298                       # number of StoreCondReq hits
system.cpu.dcache.StoreCondReq_accesses::.cpu.data          298                       # number of StoreCondReq accesses(hits+misses)
system.cpu.dcache.StoreCondReq_accesses::total          298                       # number of StoreCondReq accesses(hits+misses)
system.cpu.dcache.power_state.pwrStateResidencyTicks::UNDEFINED 200944379000                       # Cumulative time (in ticks) in various power states
system.cpu.dcache.tags.tagsinuse          1023.536430                       # Cycle average of tags in use
system.cpu.dcache.tags.total_refs            26076490                       # Total number of references to valid blocks.
system.cpu.dcache.tags.sampled_refs           8358929                       # Sample count of references to valid blocks.
system.cpu.dcache.tags.avg_refs              3.119597                       # Average number of references to valid blocks.
system.cpu.dcache.tags.warmup_cycle            269500                       # Cycle when the warmup percentage was hit.
system.cpu.dcache.tags.occ_blocks::.cpu.data  1023.536430                       # Average occupied blocks per requestor
system.cpu.dcache.tags.occ_percent::.cpu.data     0.999547                       # Average percentage of cache occupancy
system.cpu.dcache.tags.occ_percent::total     0.999547                       # Average percentage of cache occupancy
system.cpu.dcache.tags.occ_task_id_blocks::1024         1024                       # Occupied blocks per task id
system.cpu.dcache.tags.age_task_id_blocks_1024::1           64                       # Occupied blocks per task id
system.cpu.dcache.tags.age_task_id_blocks_1024::2          229                       # Occupied blocks per task id
system.cpu.dcache.tags.age_task_id_blocks_1024::3          659                       # Occupied blocks per task id
system.cpu.dcache.tags.age_task_id_blocks_1024::4           72                       # Occupied blocks per task id
system.cpu.dcache.tags.occ_task_id_percent::1024            1                       # Percentage of cache occupancy per task id
system.cpu.dcache.tags.tag_accesses          60623761                       # Number of tag accesses
system.cpu.dcache.tags.data_accesses         60623761                       # Number of data accesses
system.cpu.dcache.tags.power_state.pwrStateResidencyTicks::UNDEFINED 200944379000                       # Cumulative time (in ticks) in various power states
system.cpu.power_state.pwrStateResidencyTicks::ON 200944379000                       # Cumulative time (in ticks) in various power states
system.cpu.itb.walker.power_state.pwrStateResidencyTicks::UNDEFINED 200944379000                       # Cumulative time (in ticks) in various power states
system.cpu.itb.stage2_mmu.stage2_tlb.walker.power_state.pwrStateResidencyTicks::UNDEFINED 200944379000                       # Cumulative time (in ticks) in various power states

---------- End Simulation Statistics   ----------
