
---------- Begin Simulation Statistics ----------
final_tick                               1359251775000                       # Number of ticks from beginning of simulation (restored from checkpoints and never reset)
host_inst_rate                                 325686                       # Simulator instruction rate (inst/s)
host_mem_usage                                4574852                       # Number of bytes of host memory used
host_op_rate                                   631090                       # Simulator op (including micro ops) rate (op/s)
host_seconds                                  3991.57                       # Real time elapsed on the host
host_tick_rate                               25870918                       # Simulator tick rate (ticks/s)
sim_freq                                 1000000000000                       # Frequency of simulated ticks
sim_insts                                  1300000006                       # Number of instructions simulated
sim_ops                                    2519041831                       # Number of ops (including micro ops) simulated
sim_seconds                                  0.103266                       # Number of seconds simulated
sim_ticks                                103265619750                       # Number of ticks simulated
system.cpu.committedInsts                           0                       # Number of instructions committed
system.cpu.committedOps                             0                       # Number of ops (including micro ops) committed
system.cpu.dtb.rdAccesses                           0                       # TLB accesses on read requests
system.cpu.dtb.rdMisses                             0                       # TLB misses on read requests
system.cpu.dtb.wrAccesses                           0                       # TLB accesses on write requests
system.cpu.dtb.wrMisses                             0                       # TLB misses on write requests
system.cpu.idle_fraction                            0                       # Percentage of idle cycles
system.cpu.itb.rdAccesses                           0                       # TLB accesses on read requests
system.cpu.itb.rdMisses                             0                       # TLB misses on read requests
system.cpu.itb.wrAccesses                           0                       # TLB accesses on write requests
system.cpu.itb.wrMisses                             0                       # TLB misses on write requests
system.cpu.not_idle_fraction                        1                       # Percentage of non-idle cycles
system.cpu.numCycles                                0                       # number of cpu cycles simulated
system.cpu.numWorkItemsCompleted                    0                       # number of work items this cpu completed
system.cpu.numWorkItemsStarted                      0                       # number of work items this cpu started
system.cpu.num_busy_cycles                          0                       # Number of busy cycles
system.cpu.num_conditional_control_insts            0                       # number of instructions that are conditional controls
system.cpu.num_fp_alu_accesses                      0                       # Number of float alu accesses
system.cpu.num_fp_insts                             0                       # number of float instructions
system.cpu.num_fp_register_reads                    0                       # number of times the floating registers were read
system.cpu.num_fp_register_writes                   0                       # number of times the floating registers were written
system.cpu.num_func_calls                           0                       # number of times a function call or return occured
system.cpu.num_idle_cycles                          0                       # Number of idle cycles
system.cpu.num_int_alu_accesses                     0                       # Number of integer alu accesses
system.cpu.num_int_insts                            0                       # number of integer instructions
system.cpu.num_int_register_reads                   0                       # number of times the integer registers were read
system.cpu.num_int_register_writes                  0                       # number of times the integer registers were written
system.cpu.num_load_insts                           0                       # Number of load instructions
system.cpu.num_mem_refs                             0                       # number of memory refs
system.cpu.num_store_insts                          0                       # Number of store instructions
system.cpu.num_vec_alu_accesses                     0                       # Number of vector alu accesses
system.cpu.num_vec_insts                            0                       # number of vector instructions
system.cpu.num_vec_register_reads                   0                       # number of times the vector registers were read
system.cpu.num_vec_register_writes                  0                       # number of times the vector registers were written
system.cpu.op_class::No_OpClass                     0                       # Class of executed instruction
system.cpu.op_class::IntAlu                         0                       # Class of executed instruction
system.cpu.op_class::IntMult                        0                       # Class of executed instruction
system.cpu.op_class::IntDiv                         0                       # Class of executed instruction
system.cpu.op_class::FloatAdd                       0                       # Class of executed instruction
system.cpu.op_class::FloatCmp                       0                       # Class of executed instruction
system.cpu.op_class::FloatCvt                       0                       # Class of executed instruction
system.cpu.op_class::FloatMult                      0                       # Class of executed instruction
system.cpu.op_class::FloatMultAcc                   0                       # Class of executed instruction
system.cpu.op_class::FloatDiv                       0                       # Class of executed instruction
system.cpu.op_class::FloatMisc                      0                       # Class of executed instruction
system.cpu.op_class::FloatSqrt                      0                       # Class of executed instruction
system.cpu.op_class::SimdAdd                        0                       # Class of executed instruction
system.cpu.op_class::SimdAddAcc                     0                       # Class of executed instruction
system.cpu.op_class::SimdAlu                        0                       # Class of executed instruction
system.cpu.op_class::SimdCmp                        0                       # Class of executed instruction
system.cpu.op_class::SimdCvt                        0                       # Class of executed instruction
system.cpu.op_class::SimdMisc                       0                       # Class of executed instruction
system.cpu.op_class::SimdMult                       0                       # Class of executed instruction
system.cpu.op_class::SimdMultAcc                    0                       # Class of executed instruction
system.cpu.op_class::SimdShift                      0                       # Class of executed instruction
system.cpu.op_class::SimdShiftAcc                   0                       # Class of executed instruction
system.cpu.op_class::SimdDiv                        0                       # Class of executed instruction
system.cpu.op_class::SimdSqrt                       0                       # Class of executed instruction
system.cpu.op_class::SimdFloatAdd                   0                       # Class of executed instruction
system.cpu.op_class::SimdFloatAlu                   0                       # Class of executed instruction
system.cpu.op_class::SimdFloatCmp                   0                       # Class of executed instruction
system.cpu.op_class::SimdFloatCvt                   0                       # Class of executed instruction
system.cpu.op_class::SimdFloatDiv                   0                       # Class of executed instruction
system.cpu.op_class::SimdFloatMisc                  0                       # Class of executed instruction
system.cpu.op_class::SimdFloatMult                  0                       # Class of executed instruction
system.cpu.op_class::SimdFloatMultAcc               0                       # Class of executed instruction
system.cpu.op_class::SimdFloatSqrt                  0                       # Class of executed instruction
system.cpu.op_class::SimdReduceAdd                  0                       # Class of executed instruction
system.cpu.op_class::SimdReduceAlu                  0                       # Class of executed instruction
system.cpu.op_class::SimdReduceCmp                  0                       # Class of executed instruction
system.cpu.op_class::SimdFloatReduceAdd             0                       # Class of executed instruction
system.cpu.op_class::SimdFloatReduceCmp             0                       # Class of executed instruction
system.cpu.op_class::SimdAes                        0                       # Class of executed instruction
system.cpu.op_class::SimdAesMix                     0                       # Class of executed instruction
system.cpu.op_class::SimdSha1Hash                   0                       # Class of executed instruction
system.cpu.op_class::SimdSha1Hash2                  0                       # Class of executed instruction
system.cpu.op_class::SimdSha256Hash                 0                       # Class of executed instruction
system.cpu.op_class::SimdSha256Hash2                0                       # Class of executed instruction
system.cpu.op_class::SimdShaSigma2                  0                       # Class of executed instruction
system.cpu.op_class::SimdShaSigma3                  0                       # Class of executed instruction
system.cpu.op_class::SimdPredAlu                    0                       # Class of executed instruction
system.cpu.op_class::MemRead                        0                       # Class of executed instruction
system.cpu.op_class::MemWrite                       0                       # Class of executed instruction
system.cpu.op_class::FloatMemRead                   0                       # Class of executed instruction
system.cpu.op_class::FloatMemWrite                  0                       # Class of executed instruction
system.cpu.op_class::IprAccess                      0                       # Class of executed instruction
system.cpu.op_class::InstPrefetch                   0                       # Class of executed instruction
system.cpu.op_class::total                          0                       # Class of executed instruction
system.cpu.workload.numSyscalls                   239                       # Number of system calls
system.membus.snoop_filter.hit_multi_requests            0                       # Number of requests hitting in the snoop filter with multiple (>1) holders of the requested data.
system.membus.snoop_filter.hit_multi_snoops            0                       # Number of snoops hitting in the snoop filter with multiple (>1) holders of the requested data.
system.membus.snoop_filter.hit_single_requests        47422                       # Number of requests hitting in the snoop filter with a single holder of the requested data.
system.membus.snoop_filter.hit_single_snoops            0                       # Number of snoops hitting in the snoop filter with a single holder of the requested data.
system.membus.snoop_filter.tot_requests         94380                       # Total number of requests made to the snoop filter.
system.membus.snoop_filter.tot_snoops               0                       # Total number of snoops made to the snoop filter.
system.switch_cpus.committedInsts                   0                       # Number of instructions committed
system.switch_cpus.committedOps                     0                       # Number of ops (including micro ops) committed
system.switch_cpus.dtb.rdAccesses                   0                       # TLB accesses on read requests
system.switch_cpus.dtb.rdMisses                     0                       # TLB misses on read requests
system.switch_cpus.dtb.wrAccesses                   0                       # TLB accesses on write requests
system.switch_cpus.dtb.wrMisses                     0                       # TLB misses on write requests
system.switch_cpus.idle_fraction                    0                       # Percentage of idle cycles
system.switch_cpus.itb.rdAccesses                   0                       # TLB accesses on read requests
system.switch_cpus.itb.rdMisses                     0                       # TLB misses on read requests
system.switch_cpus.itb.wrAccesses                   0                       # TLB accesses on write requests
system.switch_cpus.itb.wrMisses                     0                       # TLB misses on write requests
system.switch_cpus.not_idle_fraction                1                       # Percentage of non-idle cycles
system.switch_cpus.numCycles                        0                       # number of cpu cycles simulated
system.switch_cpus.numWorkItemsCompleted            0                       # number of work items this cpu completed
system.switch_cpus.numWorkItemsStarted              0                       # number of work items this cpu started
system.switch_cpus.num_busy_cycles                  0                       # Number of busy cycles
system.switch_cpus.num_conditional_control_insts            0                       # number of instructions that are conditional controls
system.switch_cpus.num_fp_alu_accesses              0                       # Number of float alu accesses
system.switch_cpus.num_fp_insts                     0                       # number of float instructions
system.switch_cpus.num_fp_register_reads            0                       # number of times the floating registers were read
system.switch_cpus.num_fp_register_writes            0                       # number of times the floating registers were written
system.switch_cpus.num_func_calls                   0                       # number of times a function call or return occured
system.switch_cpus.num_idle_cycles                  0                       # Number of idle cycles
system.switch_cpus.num_int_alu_accesses             0                       # Number of integer alu accesses
system.switch_cpus.num_int_insts                    0                       # number of integer instructions
system.switch_cpus.num_int_register_reads            0                       # number of times the integer registers were read
system.switch_cpus.num_int_register_writes            0                       # number of times the integer registers were written
system.switch_cpus.num_load_insts                   0                       # Number of load instructions
system.switch_cpus.num_mem_refs                     0                       # number of memory refs
system.switch_cpus.num_store_insts                  0                       # Number of store instructions
system.switch_cpus.num_vec_alu_accesses             0                       # Number of vector alu accesses
system.switch_cpus.num_vec_insts                    0                       # number of vector instructions
system.switch_cpus.num_vec_register_reads            0                       # number of times the vector registers were read
system.switch_cpus.num_vec_register_writes            0                       # number of times the vector registers were written
system.switch_cpus.op_class::No_OpClass             0                       # Class of executed instruction
system.switch_cpus.op_class::IntAlu                 0                       # Class of executed instruction
system.switch_cpus.op_class::IntMult                0                       # Class of executed instruction
system.switch_cpus.op_class::IntDiv                 0                       # Class of executed instruction
system.switch_cpus.op_class::FloatAdd               0                       # Class of executed instruction
system.switch_cpus.op_class::FloatCmp               0                       # Class of executed instruction
system.switch_cpus.op_class::FloatCvt               0                       # Class of executed instruction
system.switch_cpus.op_class::FloatMult              0                       # Class of executed instruction
system.switch_cpus.op_class::FloatMultAcc            0                       # Class of executed instruction
system.switch_cpus.op_class::FloatDiv               0                       # Class of executed instruction
system.switch_cpus.op_class::FloatMisc              0                       # Class of executed instruction
system.switch_cpus.op_class::FloatSqrt              0                       # Class of executed instruction
system.switch_cpus.op_class::SimdAdd                0                       # Class of executed instruction
system.switch_cpus.op_class::SimdAddAcc             0                       # Class of executed instruction
system.switch_cpus.op_class::SimdAlu                0                       # Class of executed instruction
system.switch_cpus.op_class::SimdCmp                0                       # Class of executed instruction
system.switch_cpus.op_class::SimdCvt                0                       # Class of executed instruction
system.switch_cpus.op_class::SimdMisc               0                       # Class of executed instruction
system.switch_cpus.op_class::SimdMult               0                       # Class of executed instruction
system.switch_cpus.op_class::SimdMultAcc            0                       # Class of executed instruction
system.switch_cpus.op_class::SimdShift              0                       # Class of executed instruction
system.switch_cpus.op_class::SimdShiftAcc            0                       # Class of executed instruction
system.switch_cpus.op_class::SimdDiv                0                       # Class of executed instruction
system.switch_cpus.op_class::SimdSqrt               0                       # Class of executed instruction
system.switch_cpus.op_class::SimdFloatAdd            0                       # Class of executed instruction
system.switch_cpus.op_class::SimdFloatAlu            0                       # Class of executed instruction
system.switch_cpus.op_class::SimdFloatCmp            0                       # Class of executed instruction
system.switch_cpus.op_class::SimdFloatCvt            0                       # Class of executed instruction
system.switch_cpus.op_class::SimdFloatDiv            0                       # Class of executed instruction
system.switch_cpus.op_class::SimdFloatMisc            0                       # Class of executed instruction
system.switch_cpus.op_class::SimdFloatMult            0                       # Class of executed instruction
system.switch_cpus.op_class::SimdFloatMultAcc            0                       # Class of executed instruction
system.switch_cpus.op_class::SimdFloatSqrt            0                       # Class of executed instruction
system.switch_cpus.op_class::SimdReduceAdd            0                       # Class of executed instruction
system.switch_cpus.op_class::SimdReduceAlu            0                       # Class of executed instruction
system.switch_cpus.op_class::SimdReduceCmp            0                       # Class of executed instruction
system.switch_cpus.op_class::SimdFloatReduceAdd            0                       # Class of executed instruction
system.switch_cpus.op_class::SimdFloatReduceCmp            0                       # Class of executed instruction
system.switch_cpus.op_class::SimdAes                0                       # Class of executed instruction
system.switch_cpus.op_class::SimdAesMix             0                       # Class of executed instruction
system.switch_cpus.op_class::SimdSha1Hash            0                       # Class of executed instruction
system.switch_cpus.op_class::SimdSha1Hash2            0                       # Class of executed instruction
system.switch_cpus.op_class::SimdSha256Hash            0                       # Class of executed instruction
system.switch_cpus.op_class::SimdSha256Hash2            0                       # Class of executed instruction
system.switch_cpus.op_class::SimdShaSigma2            0                       # Class of executed instruction
system.switch_cpus.op_class::SimdShaSigma3            0                       # Class of executed instruction
system.switch_cpus.op_class::SimdPredAlu            0                       # Class of executed instruction
system.switch_cpus.op_class::MemRead                0                       # Class of executed instruction
system.switch_cpus.op_class::MemWrite               0                       # Class of executed instruction
system.switch_cpus.op_class::FloatMemRead            0                       # Class of executed instruction
system.switch_cpus.op_class::FloatMemWrite            0                       # Class of executed instruction
system.switch_cpus.op_class::IprAccess              0                       # Class of executed instruction
system.switch_cpus.op_class::InstPrefetch            0                       # Class of executed instruction
system.switch_cpus.op_class::total                  0                       # Class of executed instruction
system.switch_cpus_1.branchPred.BTBCorrect            0                       # Number of correct BTB predictions (this stat may not work properly.
system.switch_cpus_1.branchPred.BTBHitPct          nan                       # BTB Hit Percentage
system.switch_cpus_1.branchPred.BTBHits             0                       # Number of BTB hits
system.switch_cpus_1.branchPred.BTBLookups            0                       # Number of BTB lookups
system.switch_cpus_1.branchPred.RASInCorrect          416                       # Number of incorrect RAS predictions.
system.switch_cpus_1.branchPred.condIncorrect      6185042                       # Number of conditional branches incorrect
system.switch_cpus_1.branchPred.condPredicted     86883991                       # Number of conditional branches predicted
system.switch_cpus_1.branchPred.indirectHits     25208632                       # Number of indirect target hits.
system.switch_cpus_1.branchPred.indirectLookups     40201253                       # Number of indirect predictor lookups.
system.switch_cpus_1.branchPred.indirectMisses     14992621                       # Number of indirect misses.
system.switch_cpus_1.branchPred.lookups      94928870                       # Number of BP lookups
system.switch_cpus_1.branchPred.usedRAS       3142676                       # Number of times the RAS was used to get a target.
system.switch_cpus_1.branchPredindirectMispredicted      5041520                       # Number of mispredicted indirect branches.
system.switch_cpus_1.cc_regfile_reads       354302292                       # number of cc regfile reads
system.switch_cpus_1.cc_regfile_writes      185145454                       # number of cc regfile writes
system.switch_cpus_1.commit.amos                    0                       # Number of atomic instructions committed
system.switch_cpus_1.commit.branchMispredicts      6226651                       # The number of times a branch was mispredicted
system.switch_cpus_1.commit.branches         58832436                       # Number of branches committed
system.switch_cpus_1.commit.bw_lim_events     28960094                       # number cycles where commit BW limit reached
system.switch_cpus_1.commit.commitNonSpecStalls          239                       # The number of times commit has been forced to stall to communicate backwards
system.switch_cpus_1.commit.commitSquashedInsts    175097545                       # The number of squashed insts skipped by commit
system.switch_cpus_1.commit.committedInsts    250000004                       # Number of instructions committed
system.switch_cpus_1.commit.committedOps    485171795                       # Number of ops (including micro ops) committed
system.switch_cpus_1.commit.committed_per_cycle::samples    180116186                       # Number of insts commited each cycle
system.switch_cpus_1.commit.committed_per_cycle::mean     2.693660                       # Number of insts commited each cycle
system.switch_cpus_1.commit.committed_per_cycle::stdev     2.902346                       # Number of insts commited each cycle
system.switch_cpus_1.commit.committed_per_cycle::underflows            0      0.00%      0.00% # Number of insts commited each cycle
system.switch_cpus_1.commit.committed_per_cycle::0     60474928     33.58%     33.58% # Number of insts commited each cycle
system.switch_cpus_1.commit.committed_per_cycle::1     27350636     15.18%     48.76% # Number of insts commited each cycle
system.switch_cpus_1.commit.committed_per_cycle::2     17192643      9.55%     58.31% # Number of insts commited each cycle
system.switch_cpus_1.commit.committed_per_cycle::3     20541075     11.40%     69.71% # Number of insts commited each cycle
system.switch_cpus_1.commit.committed_per_cycle::4      9728697      5.40%     75.11% # Number of insts commited each cycle
system.switch_cpus_1.commit.committed_per_cycle::5      7329384      4.07%     79.18% # Number of insts commited each cycle
system.switch_cpus_1.commit.committed_per_cycle::6      5200915      2.89%     82.07% # Number of insts commited each cycle
system.switch_cpus_1.commit.committed_per_cycle::7      3337814      1.85%     83.92% # Number of insts commited each cycle
system.switch_cpus_1.commit.committed_per_cycle::8     28960094     16.08%    100.00% # Number of insts commited each cycle
system.switch_cpus_1.commit.committed_per_cycle::overflows            0      0.00%    100.00% # Number of insts commited each cycle
system.switch_cpus_1.commit.committed_per_cycle::min_value            0                       # Number of insts commited each cycle
system.switch_cpus_1.commit.committed_per_cycle::max_value            8                       # Number of insts commited each cycle
system.switch_cpus_1.commit.committed_per_cycle::total    180116186                       # Number of insts commited each cycle
system.switch_cpus_1.commit.fp_insts          2509809                       # Number of committed floating point instructions.
system.switch_cpus_1.commit.function_calls      2333728                       # Number of function calls committed.
system.switch_cpus_1.commit.int_insts       481181977                       # Number of committed integer instructions.
system.switch_cpus_1.commit.loads            55985773                       # Number of loads committed
system.switch_cpus_1.commit.membars                 0                       # Number of memory barriers committed
system.switch_cpus_1.commit.op_class_0::No_OpClass      2560040      0.53%      0.53% # Class of committed instruction
system.switch_cpus_1.commit.op_class_0::IntAlu    390902642     80.57%     81.10% # Class of committed instruction
system.switch_cpus_1.commit.op_class_0::IntMult       420287      0.09%     81.18% # Class of committed instruction
system.switch_cpus_1.commit.op_class_0::IntDiv      3933063      0.81%     81.99% # Class of committed instruction
system.switch_cpus_1.commit.op_class_0::FloatAdd       374648      0.08%     82.07% # Class of committed instruction
system.switch_cpus_1.commit.op_class_0::FloatCmp            0      0.00%     82.07% # Class of committed instruction
system.switch_cpus_1.commit.op_class_0::FloatCvt            0      0.00%     82.07% # Class of committed instruction
system.switch_cpus_1.commit.op_class_0::FloatMult            0      0.00%     82.07% # Class of committed instruction
system.switch_cpus_1.commit.op_class_0::FloatMultAcc            0      0.00%     82.07% # Class of committed instruction
system.switch_cpus_1.commit.op_class_0::FloatDiv            0      0.00%     82.07% # Class of committed instruction
system.switch_cpus_1.commit.op_class_0::FloatMisc            0      0.00%     82.07% # Class of committed instruction
system.switch_cpus_1.commit.op_class_0::FloatSqrt            0      0.00%     82.07% # Class of committed instruction
system.switch_cpus_1.commit.op_class_0::SimdAdd            0      0.00%     82.07% # Class of committed instruction
system.switch_cpus_1.commit.op_class_0::SimdAddAcc            0      0.00%     82.07% # Class of committed instruction
system.switch_cpus_1.commit.op_class_0::SimdAlu       303362      0.06%     82.13% # Class of committed instruction
system.switch_cpus_1.commit.op_class_0::SimdCmp            0      0.00%     82.13% # Class of committed instruction
system.switch_cpus_1.commit.op_class_0::SimdCvt       231180      0.05%     82.18% # Class of committed instruction
system.switch_cpus_1.commit.op_class_0::SimdMisc       231810      0.05%     82.23% # Class of committed instruction
system.switch_cpus_1.commit.op_class_0::SimdMult            0      0.00%     82.23% # Class of committed instruction
system.switch_cpus_1.commit.op_class_0::SimdMultAcc            0      0.00%     82.23% # Class of committed instruction
system.switch_cpus_1.commit.op_class_0::SimdShift            0      0.00%     82.23% # Class of committed instruction
system.switch_cpus_1.commit.op_class_0::SimdShiftAcc            0      0.00%     82.23% # Class of committed instruction
system.switch_cpus_1.commit.op_class_0::SimdDiv            0      0.00%     82.23% # Class of committed instruction
system.switch_cpus_1.commit.op_class_0::SimdSqrt            0      0.00%     82.23% # Class of committed instruction
system.switch_cpus_1.commit.op_class_0::SimdFloatAdd            0      0.00%     82.23% # Class of committed instruction
system.switch_cpus_1.commit.op_class_0::SimdFloatAlu            0      0.00%     82.23% # Class of committed instruction
system.switch_cpus_1.commit.op_class_0::SimdFloatCmp            0      0.00%     82.23% # Class of committed instruction
system.switch_cpus_1.commit.op_class_0::SimdFloatCvt        57742      0.01%     82.24% # Class of committed instruction
system.switch_cpus_1.commit.op_class_0::SimdFloatDiv            0      0.00%     82.24% # Class of committed instruction
system.switch_cpus_1.commit.op_class_0::SimdFloatMisc            0      0.00%     82.24% # Class of committed instruction
system.switch_cpus_1.commit.op_class_0::SimdFloatMult            0      0.00%     82.24% # Class of committed instruction
system.switch_cpus_1.commit.op_class_0::SimdFloatMultAcc            0      0.00%     82.24% # Class of committed instruction
system.switch_cpus_1.commit.op_class_0::SimdFloatSqrt            0      0.00%     82.24% # Class of committed instruction
system.switch_cpus_1.commit.op_class_0::SimdReduceAdd            0      0.00%     82.24% # Class of committed instruction
system.switch_cpus_1.commit.op_class_0::SimdReduceAlu            0      0.00%     82.24% # Class of committed instruction
system.switch_cpus_1.commit.op_class_0::SimdReduceCmp            0      0.00%     82.24% # Class of committed instruction
system.switch_cpus_1.commit.op_class_0::SimdFloatReduceAdd            0      0.00%     82.24% # Class of committed instruction
system.switch_cpus_1.commit.op_class_0::SimdFloatReduceCmp            0      0.00%     82.24% # Class of committed instruction
system.switch_cpus_1.commit.op_class_0::SimdAes            0      0.00%     82.24% # Class of committed instruction
system.switch_cpus_1.commit.op_class_0::SimdAesMix            0      0.00%     82.24% # Class of committed instruction
system.switch_cpus_1.commit.op_class_0::SimdSha1Hash            0      0.00%     82.24% # Class of committed instruction
system.switch_cpus_1.commit.op_class_0::SimdSha1Hash2            0      0.00%     82.24% # Class of committed instruction
system.switch_cpus_1.commit.op_class_0::SimdSha256Hash            0      0.00%     82.24% # Class of committed instruction
system.switch_cpus_1.commit.op_class_0::SimdSha256Hash2            0      0.00%     82.24% # Class of committed instruction
system.switch_cpus_1.commit.op_class_0::SimdShaSigma2            0      0.00%     82.24% # Class of committed instruction
system.switch_cpus_1.commit.op_class_0::SimdShaSigma3            0      0.00%     82.24% # Class of committed instruction
system.switch_cpus_1.commit.op_class_0::SimdPredAlu            0      0.00%     82.24% # Class of committed instruction
system.switch_cpus_1.commit.op_class_0::MemRead     55336528     11.41%     93.65% # Class of committed instruction
system.switch_cpus_1.commit.op_class_0::MemWrite     29509516      6.08%     99.73% # Class of committed instruction
system.switch_cpus_1.commit.op_class_0::FloatMemRead       649245      0.13%     99.86% # Class of committed instruction
system.switch_cpus_1.commit.op_class_0::FloatMemWrite       661732      0.14%    100.00% # Class of committed instruction
system.switch_cpus_1.commit.op_class_0::IprAccess            0      0.00%    100.00% # Class of committed instruction
system.switch_cpus_1.commit.op_class_0::InstPrefetch            0      0.00%    100.00% # Class of committed instruction
system.switch_cpus_1.commit.op_class_0::total    485171795                       # Class of committed instruction
system.switch_cpus_1.commit.refs             86157021                       # Number of memory references committed
system.switch_cpus_1.commit.swp_count               0                       # Number of s/w prefetches committed
system.switch_cpus_1.commit.vec_insts               0                       # Number of committed Vector instructions.
system.switch_cpus_1.committedInsts         250000004                       # Number of Instructions Simulated
system.switch_cpus_1.committedOps           485171795                       # Number of Ops (including micro ops) Simulated
system.switch_cpus_1.cpi                     0.826125                       # CPI: Cycles Per Instruction
system.switch_cpus_1.cpi_total               0.826125                       # CPI: Total CPI of All Threads
system.switch_cpus_1.decode.BlockedCycles     31275196                       # Number of cycles decode is blocked
system.switch_cpus_1.decode.DecodedInsts    752746348                       # Number of instructions handled by decode
system.switch_cpus_1.decode.IdleCycles       55753454                       # Number of cycles decode is idle
system.switch_cpus_1.decode.RunCycles       107749977                       # Number of cycles decode is running
system.switch_cpus_1.decode.SquashCycles      6235485                       # Number of cycles decode is squashing
system.switch_cpus_1.decode.UnblockCycles      5455514                       # Number of cycles decode is unblocking
system.switch_cpus_1.dtb.rdAccesses          69107768                       # TLB accesses on read requests
system.switch_cpus_1.dtb.rdMisses              228555                       # TLB misses on read requests
system.switch_cpus_1.dtb.wrAccesses          33509936                       # TLB accesses on write requests
system.switch_cpus_1.dtb.wrMisses               35915                       # TLB misses on write requests
system.switch_cpus_1.fetch.Branches          94928870                       # Number of branches that fetch encountered
system.switch_cpus_1.fetch.CacheLines        55669421                       # Number of cache lines fetched
system.switch_cpus_1.fetch.Cycles           139288342                       # Number of cycles fetch has run and was not squashing or blocked
system.switch_cpus_1.fetch.IcacheSquashes      1678353                       # Number of outstanding Icache misses that were squashed
system.switch_cpus_1.fetch.IcacheWaitRetryStallCycles          163                       # Number of stall cycles due to full MSHR
system.switch_cpus_1.fetch.Insts            415025719                       # Number of instructions fetch has processed
system.switch_cpus_1.fetch.MiscStallCycles        36511                       # Number of cycles fetch has spent waiting on interrupts, or bad addresses, or out of MSHRs
system.switch_cpus_1.fetch.PendingTrapStallCycles       331426                       # Number of stall cycles due to pending traps
system.switch_cpus_1.fetch.SquashCycles      12470970                       # Number of cycles fetch has spent squashing
system.switch_cpus_1.fetch.TlbCycles                4                       # Number of cycles fetch has spent waiting for tlb
system.switch_cpus_1.fetch.branchRate        0.459634                       # Number of branch fetches per cycle
system.switch_cpus_1.fetch.icacheStallCycles     60577705                       # Number of cycles fetch is stalled on an Icache miss
system.switch_cpus_1.fetch.predictedBranches     28351308                       # Number of branches that fetch has predicted taken
system.switch_cpus_1.fetch.rate              2.009506                       # Number of inst fetches per cycle
system.switch_cpus_1.fetch.rateDist::samples    206469636                       # Number of instructions fetched each cycle (Total)
system.switch_cpus_1.fetch.rateDist::mean     3.830186                       # Number of instructions fetched each cycle (Total)
system.switch_cpus_1.fetch.rateDist::stdev     3.627956                       # Number of instructions fetched each cycle (Total)
system.switch_cpus_1.fetch.rateDist::underflows            0      0.00%      0.00% # Number of instructions fetched each cycle (Total)
system.switch_cpus_1.fetch.rateDist::0       83338751     40.36%     40.36% # Number of instructions fetched each cycle (Total)
system.switch_cpus_1.fetch.rateDist::1        6021592      2.92%     43.28% # Number of instructions fetched each cycle (Total)
system.switch_cpus_1.fetch.rateDist::2        8259171      4.00%     47.28% # Number of instructions fetched each cycle (Total)
system.switch_cpus_1.fetch.rateDist::3        6874876      3.33%     50.61% # Number of instructions fetched each cycle (Total)
system.switch_cpus_1.fetch.rateDist::4        6657799      3.22%     53.83% # Number of instructions fetched each cycle (Total)
system.switch_cpus_1.fetch.rateDist::5        8336733      4.04%     57.87% # Number of instructions fetched each cycle (Total)
system.switch_cpus_1.fetch.rateDist::6        5761591      2.79%     60.66% # Number of instructions fetched each cycle (Total)
system.switch_cpus_1.fetch.rateDist::7        4984890      2.41%     63.08% # Number of instructions fetched each cycle (Total)
system.switch_cpus_1.fetch.rateDist::8       76234233     36.92%    100.00% # Number of instructions fetched each cycle (Total)
system.switch_cpus_1.fetch.rateDist::overflows            0      0.00%    100.00% # Number of instructions fetched each cycle (Total)
system.switch_cpus_1.fetch.rateDist::min_value            0                       # Number of instructions fetched each cycle (Total)
system.switch_cpus_1.fetch.rateDist::max_value            8                       # Number of instructions fetched each cycle (Total)
system.switch_cpus_1.fetch.rateDist::total    206469636                       # Number of instructions fetched each cycle (Total)
system.switch_cpus_1.fp_regfile_reads         2412675                       # number of floating regfile reads
system.switch_cpus_1.fp_regfile_writes        1673097                       # number of floating regfile writes
system.switch_cpus_1.idleCycles                 61603                       # Total number of cycles that the CPU has spent unscheduled due to idling
system.switch_cpus_1.iew.branchMispredicts      8579914                       # Number of branch mispredicts detected at execute
system.switch_cpus_1.iew.exec_branches       67195698                       # Number of branches executed
system.switch_cpus_1.iew.exec_nop                   0                       # number of nop insts executed
system.switch_cpus_1.iew.exec_rate           2.831255                       # Inst execution rate
system.switch_cpus_1.iew.exec_refs          102608697                       # number of memory reference insts executed
system.switch_cpus_1.iew.exec_stores         33509936                       # Number of stores executed
system.switch_cpus_1.iew.exec_swp                   0                       # number of swp insts executed
system.switch_cpus_1.iew.iewBlockCycles      20137827                       # Number of cycles IEW is blocking
system.switch_cpus_1.iew.iewDispLoadInsts     77426564                       # Number of dispatched load instructions
system.switch_cpus_1.iew.iewDispNonSpecInsts        27564                       # Number of dispatched non-speculative instructions
system.switch_cpus_1.iew.iewDispSquashedInsts       631166                       # Number of squashed instructions skipped by dispatch
system.switch_cpus_1.iew.iewDispStoreInsts     39422822                       # Number of dispatched store instructions
system.switch_cpus_1.iew.iewDispatchedInsts    660280662                       # Number of instructions dispatched to IQ
system.switch_cpus_1.iew.iewExecLoadInsts     69098761                       # Number of load instructions executed
system.switch_cpus_1.iew.iewExecSquashedInsts     15682440                       # Number of squashed instructions skipped in execute
system.switch_cpus_1.iew.iewExecutedInsts    584742504                       # Number of executed instructions
system.switch_cpus_1.iew.iewIQFullEvents         2623                       # Number of times the IQ has become full, causing a stall
system.switch_cpus_1.iew.iewIdleCycles              0                       # Number of cycles IEW is idle
system.switch_cpus_1.iew.iewLSQFullEvents       584768                       # Number of times the LSQ has become full, causing a stall
system.switch_cpus_1.iew.iewSquashCycles      6235485                       # Number of cycles IEW is squashing
system.switch_cpus_1.iew.iewUnblockCycles       588666                       # Number of cycles IEW is unblocking
system.switch_cpus_1.iew.lsq.thread0.blockedLoads            0                       # Number of blocked loads due to partial load-store forwarding
system.switch_cpus_1.iew.lsq.thread0.cacheBlocked          235                       # Number of times an access to memory failed due to the cache being blocked
system.switch_cpus_1.iew.lsq.thread0.forwLoads      8943227                       # Number of loads that had data forwarded from stores
system.switch_cpus_1.iew.lsq.thread0.ignoredResponses        34524                       # Number of memory responses ignored because the instruction is squashed
system.switch_cpus_1.iew.lsq.thread0.invAddrLoads            0                       # Number of loads ignored due to an invalid address
system.switch_cpus_1.iew.lsq.thread0.invAddrSwpfs            0                       # Number of software prefetches ignored due to an invalid address
system.switch_cpus_1.iew.lsq.thread0.memOrderViolation        32719                       # Number of memory ordering violations
system.switch_cpus_1.iew.lsq.thread0.rescheduledLoads        30302                       # Number of loads that were rescheduled
system.switch_cpus_1.iew.lsq.thread0.squashedLoads     21440782                       # Number of loads squashed
system.switch_cpus_1.iew.lsq.thread0.squashedStores      9251572                       # Number of stores squashed
system.switch_cpus_1.iew.memOrderViolationEvents        32719                       # Number of memory order violations
system.switch_cpus_1.iew.predictedNotTakenIncorrect      8134114                       # Number of branches that were predicted not taken incorrectly
system.switch_cpus_1.iew.predictedTakenIncorrect       445800                       # Number of branches that were predicted taken incorrectly
system.switch_cpus_1.iew.wb_consumers       682984927                       # num instructions consuming a value
system.switch_cpus_1.iew.wb_count           578596479                       # cumulative count of insts written-back
system.switch_cpus_1.iew.wb_fanout           0.622792                       # average fanout of values written-back
system.switch_cpus_1.iew.wb_producers       425357852                       # num instructions producing a value
system.switch_cpus_1.iew.wb_rate             2.801496                       # insts written-back per cycle
system.switch_cpus_1.iew.wb_sent            581258702                       # cumulative count of insts sent to commit
system.switch_cpus_1.int_regfile_reads      855527405                       # number of integer regfile reads
system.switch_cpus_1.int_regfile_writes     483495609                       # number of integer regfile writes
system.switch_cpus_1.ipc                     1.210471                       # IPC: Instructions Per Cycle
system.switch_cpus_1.ipc_total               1.210471                       # IPC: Total IPC of All Threads
system.switch_cpus_1.iq.FU_type_0::No_OpClass      4879807      0.81%      0.81% # Type of FU issued
system.switch_cpus_1.iq.FU_type_0::IntAlu    482703321     80.39%     81.21% # Type of FU issued
system.switch_cpus_1.iq.FU_type_0::IntMult       430862      0.07%     81.28% # Type of FU issued
system.switch_cpus_1.iq.FU_type_0::IntDiv      4184371      0.70%     81.98% # Type of FU issued
system.switch_cpus_1.iq.FU_type_0::FloatAdd       432193      0.07%     82.05% # Type of FU issued
system.switch_cpus_1.iq.FU_type_0::FloatCmp            0      0.00%     82.05% # Type of FU issued
system.switch_cpus_1.iq.FU_type_0::FloatCvt          658      0.00%     82.05% # Type of FU issued
system.switch_cpus_1.iq.FU_type_0::FloatMult            0      0.00%     82.05% # Type of FU issued
system.switch_cpus_1.iq.FU_type_0::FloatMultAcc            0      0.00%     82.05% # Type of FU issued
system.switch_cpus_1.iq.FU_type_0::FloatDiv            0      0.00%     82.05% # Type of FU issued
system.switch_cpus_1.iq.FU_type_0::FloatMisc            0      0.00%     82.05% # Type of FU issued
system.switch_cpus_1.iq.FU_type_0::FloatSqrt            0      0.00%     82.05% # Type of FU issued
system.switch_cpus_1.iq.FU_type_0::SimdAdd            0      0.00%     82.05% # Type of FU issued
system.switch_cpus_1.iq.FU_type_0::SimdAddAcc            0      0.00%     82.05% # Type of FU issued
system.switch_cpus_1.iq.FU_type_0::SimdAlu       390508      0.07%     82.11% # Type of FU issued
system.switch_cpus_1.iq.FU_type_0::SimdCmp            0      0.00%     82.11% # Type of FU issued
system.switch_cpus_1.iq.FU_type_0::SimdCvt       231225      0.04%     82.15% # Type of FU issued
system.switch_cpus_1.iq.FU_type_0::SimdMisc       231824      0.04%     82.19% # Type of FU issued
system.switch_cpus_1.iq.FU_type_0::SimdMult            0      0.00%     82.19% # Type of FU issued
system.switch_cpus_1.iq.FU_type_0::SimdMultAcc            0      0.00%     82.19% # Type of FU issued
system.switch_cpus_1.iq.FU_type_0::SimdShift            0      0.00%     82.19% # Type of FU issued
system.switch_cpus_1.iq.FU_type_0::SimdShiftAcc            0      0.00%     82.19% # Type of FU issued
system.switch_cpus_1.iq.FU_type_0::SimdDiv            0      0.00%     82.19% # Type of FU issued
system.switch_cpus_1.iq.FU_type_0::SimdSqrt            0      0.00%     82.19% # Type of FU issued
system.switch_cpus_1.iq.FU_type_0::SimdFloatAdd            0      0.00%     82.19% # Type of FU issued
system.switch_cpus_1.iq.FU_type_0::SimdFloatAlu            0      0.00%     82.19% # Type of FU issued
system.switch_cpus_1.iq.FU_type_0::SimdFloatCmp            0      0.00%     82.19% # Type of FU issued
system.switch_cpus_1.iq.FU_type_0::SimdFloatCvt        57742      0.01%     82.20% # Type of FU issued
system.switch_cpus_1.iq.FU_type_0::SimdFloatDiv            0      0.00%     82.20% # Type of FU issued
system.switch_cpus_1.iq.FU_type_0::SimdFloatMisc            0      0.00%     82.20% # Type of FU issued
system.switch_cpus_1.iq.FU_type_0::SimdFloatMult          443      0.00%     82.20% # Type of FU issued
system.switch_cpus_1.iq.FU_type_0::SimdFloatMultAcc            0      0.00%     82.20% # Type of FU issued
system.switch_cpus_1.iq.FU_type_0::SimdFloatSqrt            0      0.00%     82.20% # Type of FU issued
system.switch_cpus_1.iq.FU_type_0::SimdReduceAdd            0      0.00%     82.20% # Type of FU issued
system.switch_cpus_1.iq.FU_type_0::SimdReduceAlu            0      0.00%     82.20% # Type of FU issued
system.switch_cpus_1.iq.FU_type_0::SimdReduceCmp            0      0.00%     82.20% # Type of FU issued
system.switch_cpus_1.iq.FU_type_0::SimdFloatReduceAdd            0      0.00%     82.20% # Type of FU issued
system.switch_cpus_1.iq.FU_type_0::SimdFloatReduceCmp            0      0.00%     82.20% # Type of FU issued
system.switch_cpus_1.iq.FU_type_0::SimdAes            0      0.00%     82.20% # Type of FU issued
system.switch_cpus_1.iq.FU_type_0::SimdAesMix            0      0.00%     82.20% # Type of FU issued
system.switch_cpus_1.iq.FU_type_0::SimdSha1Hash            0      0.00%     82.20% # Type of FU issued
system.switch_cpus_1.iq.FU_type_0::SimdSha1Hash2            0      0.00%     82.20% # Type of FU issued
system.switch_cpus_1.iq.FU_type_0::SimdSha256Hash            0      0.00%     82.20% # Type of FU issued
system.switch_cpus_1.iq.FU_type_0::SimdSha256Hash2            0      0.00%     82.20% # Type of FU issued
system.switch_cpus_1.iq.FU_type_0::SimdShaSigma2            0      0.00%     82.20% # Type of FU issued
system.switch_cpus_1.iq.FU_type_0::SimdShaSigma3            0      0.00%     82.20% # Type of FU issued
system.switch_cpus_1.iq.FU_type_0::SimdPredAlu            0      0.00%     82.20% # Type of FU issued
system.switch_cpus_1.iq.FU_type_0::MemRead     71410938     11.89%     94.09% # Type of FU issued
system.switch_cpus_1.iq.FU_type_0::MemWrite     34014322      5.67%     99.76% # Type of FU issued
system.switch_cpus_1.iq.FU_type_0::FloatMemRead       696394      0.12%     99.87% # Type of FU issued
system.switch_cpus_1.iq.FU_type_0::FloatMemWrite       760343      0.13%    100.00% # Type of FU issued
system.switch_cpus_1.iq.FU_type_0::IprAccess            0      0.00%    100.00% # Type of FU issued
system.switch_cpus_1.iq.FU_type_0::InstPrefetch            0      0.00%    100.00% # Type of FU issued
system.switch_cpus_1.iq.FU_type_0::total    600424951                       # Type of FU issued
system.switch_cpus_1.iq.fp_alu_accesses       2820349                       # Number of floating point alu accesses
system.switch_cpus_1.iq.fp_inst_queue_reads      5622390                       # Number of floating instruction queue reads
system.switch_cpus_1.iq.fp_inst_queue_wakeup_accesses      2641107                       # Number of floating instruction queue wakeup accesses
system.switch_cpus_1.iq.fp_inst_queue_writes      4048053                       # Number of floating instruction queue writes
system.switch_cpus_1.iq.fu_busy_cnt          12888241                       # FU busy when requested
system.switch_cpus_1.iq.fu_busy_rate         0.021465                       # FU busy rate (busy events/executed inst)
system.switch_cpus_1.iq.fu_full::No_OpClass            0      0.00%      0.00% # attempts to use FU when none available
system.switch_cpus_1.iq.fu_full::IntAlu      11824680     91.75%     91.75% # attempts to use FU when none available
system.switch_cpus_1.iq.fu_full::IntMult            0      0.00%     91.75% # attempts to use FU when none available
system.switch_cpus_1.iq.fu_full::IntDiv             0      0.00%     91.75% # attempts to use FU when none available
system.switch_cpus_1.iq.fu_full::FloatAdd            0      0.00%     91.75% # attempts to use FU when none available
system.switch_cpus_1.iq.fu_full::FloatCmp            0      0.00%     91.75% # attempts to use FU when none available
system.switch_cpus_1.iq.fu_full::FloatCvt            0      0.00%     91.75% # attempts to use FU when none available
system.switch_cpus_1.iq.fu_full::FloatMult            0      0.00%     91.75% # attempts to use FU when none available
system.switch_cpus_1.iq.fu_full::FloatMultAcc            0      0.00%     91.75% # attempts to use FU when none available
system.switch_cpus_1.iq.fu_full::FloatDiv            0      0.00%     91.75% # attempts to use FU when none available
system.switch_cpus_1.iq.fu_full::FloatMisc            0      0.00%     91.75% # attempts to use FU when none available
system.switch_cpus_1.iq.fu_full::FloatSqrt            0      0.00%     91.75% # attempts to use FU when none available
system.switch_cpus_1.iq.fu_full::SimdAdd            0      0.00%     91.75% # attempts to use FU when none available
system.switch_cpus_1.iq.fu_full::SimdAddAcc            0      0.00%     91.75% # attempts to use FU when none available
system.switch_cpus_1.iq.fu_full::SimdAlu           97      0.00%     91.75% # attempts to use FU when none available
system.switch_cpus_1.iq.fu_full::SimdCmp            0      0.00%     91.75% # attempts to use FU when none available
system.switch_cpus_1.iq.fu_full::SimdCvt            0      0.00%     91.75% # attempts to use FU when none available
system.switch_cpus_1.iq.fu_full::SimdMisc            0      0.00%     91.75% # attempts to use FU when none available
system.switch_cpus_1.iq.fu_full::SimdMult            0      0.00%     91.75% # attempts to use FU when none available
system.switch_cpus_1.iq.fu_full::SimdMultAcc            0      0.00%     91.75% # attempts to use FU when none available
system.switch_cpus_1.iq.fu_full::SimdShift            0      0.00%     91.75% # attempts to use FU when none available
system.switch_cpus_1.iq.fu_full::SimdShiftAcc            0      0.00%     91.75% # attempts to use FU when none available
system.switch_cpus_1.iq.fu_full::SimdDiv            0      0.00%     91.75% # attempts to use FU when none available
system.switch_cpus_1.iq.fu_full::SimdSqrt            0      0.00%     91.75% # attempts to use FU when none available
system.switch_cpus_1.iq.fu_full::SimdFloatAdd            0      0.00%     91.75% # attempts to use FU when none available
system.switch_cpus_1.iq.fu_full::SimdFloatAlu            0      0.00%     91.75% # attempts to use FU when none available
system.switch_cpus_1.iq.fu_full::SimdFloatCmp            0      0.00%     91.75% # attempts to use FU when none available
system.switch_cpus_1.iq.fu_full::SimdFloatCvt            0      0.00%     91.75% # attempts to use FU when none available
system.switch_cpus_1.iq.fu_full::SimdFloatDiv            0      0.00%     91.75% # attempts to use FU when none available
system.switch_cpus_1.iq.fu_full::SimdFloatMisc            0      0.00%     91.75% # attempts to use FU when none available
system.switch_cpus_1.iq.fu_full::SimdFloatMult            0      0.00%     91.75% # attempts to use FU when none available
system.switch_cpus_1.iq.fu_full::SimdFloatMultAcc            0      0.00%     91.75% # attempts to use FU when none available
system.switch_cpus_1.iq.fu_full::SimdFloatSqrt            0      0.00%     91.75% # attempts to use FU when none available
system.switch_cpus_1.iq.fu_full::SimdReduceAdd            0      0.00%     91.75% # attempts to use FU when none available
system.switch_cpus_1.iq.fu_full::SimdReduceAlu            0      0.00%     91.75% # attempts to use FU when none available
system.switch_cpus_1.iq.fu_full::SimdReduceCmp            0      0.00%     91.75% # attempts to use FU when none available
system.switch_cpus_1.iq.fu_full::SimdFloatReduceAdd            0      0.00%     91.75% # attempts to use FU when none available
system.switch_cpus_1.iq.fu_full::SimdFloatReduceCmp            0      0.00%     91.75% # attempts to use FU when none available
system.switch_cpus_1.iq.fu_full::SimdAes            0      0.00%     91.75% # attempts to use FU when none available
system.switch_cpus_1.iq.fu_full::SimdAesMix            0      0.00%     91.75% # attempts to use FU when none available
system.switch_cpus_1.iq.fu_full::SimdSha1Hash            0      0.00%     91.75% # attempts to use FU when none available
system.switch_cpus_1.iq.fu_full::SimdSha1Hash2            0      0.00%     91.75% # attempts to use FU when none available
system.switch_cpus_1.iq.fu_full::SimdSha256Hash            0      0.00%     91.75% # attempts to use FU when none available
system.switch_cpus_1.iq.fu_full::SimdSha256Hash2            0      0.00%     91.75% # attempts to use FU when none available
system.switch_cpus_1.iq.fu_full::SimdShaSigma2            0      0.00%     91.75% # attempts to use FU when none available
system.switch_cpus_1.iq.fu_full::SimdShaSigma3            0      0.00%     91.75% # attempts to use FU when none available
system.switch_cpus_1.iq.fu_full::SimdPredAlu            0      0.00%     91.75% # attempts to use FU when none available
system.switch_cpus_1.iq.fu_full::MemRead       968849      7.52%     99.27% # attempts to use FU when none available
system.switch_cpus_1.iq.fu_full::MemWrite        75783      0.59%     99.85% # attempts to use FU when none available
system.switch_cpus_1.iq.fu_full::FloatMemRead            0      0.00%     99.85% # attempts to use FU when none available
system.switch_cpus_1.iq.fu_full::FloatMemWrite        18832      0.15%    100.00% # attempts to use FU when none available
system.switch_cpus_1.iq.fu_full::IprAccess            0      0.00%    100.00% # attempts to use FU when none available
system.switch_cpus_1.iq.fu_full::InstPrefetch            0      0.00%    100.00% # attempts to use FU when none available
system.switch_cpus_1.iq.int_alu_accesses    605613036                       # Number of integer alu accesses
system.switch_cpus_1.iq.int_inst_queue_reads   1416976384                       # Number of integer instruction queue reads
system.switch_cpus_1.iq.int_inst_queue_wakeup_accesses    575955372                       # Number of integer instruction queue wakeup accesses
system.switch_cpus_1.iq.int_inst_queue_writes    831350999                       # Number of integer instruction queue writes
system.switch_cpus_1.iq.iqInstsAdded        660198457                       # Number of instructions added to the IQ (excludes non-spec)
system.switch_cpus_1.iq.iqInstsIssued       600424951                       # Number of instructions issued
system.switch_cpus_1.iq.iqNonSpecInstsAdded        82205                       # Number of non-speculative instructions added to the IQ
system.switch_cpus_1.iq.iqSquashedInstsExamined    175108815                       # Number of squashed instructions iterated over during squash; mainly for profiling
system.switch_cpus_1.iq.iqSquashedInstsIssued      2391002                       # Number of squashed instructions issued
system.switch_cpus_1.iq.iqSquashedNonSpecRemoved        81966                       # Number of squashed non-spec instructions that were removed
system.switch_cpus_1.iq.iqSquashedOperandsExamined    261889510                       # Number of squashed operands that are examined and possibly removed from graph
system.switch_cpus_1.iq.issued_per_cycle::samples    206469636                       # Number of insts issued each cycle
system.switch_cpus_1.iq.issued_per_cycle::mean     2.908054                       # Number of insts issued each cycle
system.switch_cpus_1.iq.issued_per_cycle::stdev     2.590884                       # Number of insts issued each cycle
system.switch_cpus_1.iq.issued_per_cycle::underflows            0      0.00%      0.00% # Number of insts issued each cycle
system.switch_cpus_1.iq.issued_per_cycle::0     64975332     31.47%     31.47% # Number of insts issued each cycle
system.switch_cpus_1.iq.issued_per_cycle::1     15293116      7.41%     38.88% # Number of insts issued each cycle
system.switch_cpus_1.iq.issued_per_cycle::2     19949381      9.66%     48.54% # Number of insts issued each cycle
system.switch_cpus_1.iq.issued_per_cycle::3     18997950      9.20%     57.74% # Number of insts issued each cycle
system.switch_cpus_1.iq.issued_per_cycle::4     21033132     10.19%     67.93% # Number of insts issued each cycle
system.switch_cpus_1.iq.issued_per_cycle::5     21439806     10.38%     78.31% # Number of insts issued each cycle
system.switch_cpus_1.iq.issued_per_cycle::6     23776043     11.52%     89.83% # Number of insts issued each cycle
system.switch_cpus_1.iq.issued_per_cycle::7     13787601      6.68%     96.50% # Number of insts issued each cycle
system.switch_cpus_1.iq.issued_per_cycle::8      7217275      3.50%    100.00% # Number of insts issued each cycle
system.switch_cpus_1.iq.issued_per_cycle::overflows            0      0.00%    100.00% # Number of insts issued each cycle
system.switch_cpus_1.iq.issued_per_cycle::min_value            0                       # Number of insts issued each cycle
system.switch_cpus_1.iq.issued_per_cycle::max_value            8                       # Number of insts issued each cycle
system.switch_cpus_1.iq.issued_per_cycle::total    206469636                       # Number of insts issued each cycle
system.switch_cpus_1.iq.rate                 2.907187                       # Inst issue rate
system.switch_cpus_1.iq.vec_alu_accesses            0                       # Number of vector alu accesses
system.switch_cpus_1.iq.vec_inst_queue_reads            0                       # Number of vector instruction queue reads
system.switch_cpus_1.iq.vec_inst_queue_wakeup_accesses            0                       # Number of vector instruction queue wakeup accesses
system.switch_cpus_1.iq.vec_inst_queue_writes            0                       # Number of vector instruction queue writes
system.switch_cpus_1.itb.rdAccesses                 0                       # TLB accesses on read requests
system.switch_cpus_1.itb.rdMisses                   0                       # TLB misses on read requests
system.switch_cpus_1.itb.wrAccesses          55727167                       # TLB accesses on write requests
system.switch_cpus_1.itb.wrMisses               57791                       # TLB misses on write requests
system.switch_cpus_1.memDep0.conflictingLoads      5744632                       # Number of conflicting loads.
system.switch_cpus_1.memDep0.conflictingStores      3393448                       # Number of conflicting stores.
system.switch_cpus_1.memDep0.insertedLoads     77426564                       # Number of loads inserted to the mem dependence unit.
system.switch_cpus_1.memDep0.insertedStores     39422822                       # Number of stores inserted to the mem dependence unit.
system.switch_cpus_1.misc_regfile_reads     243285451                       # number of misc regfile reads
system.switch_cpus_1.numCycles              206531239                       # number of cpu cycles simulated
system.switch_cpus_1.numWorkItemsCompleted            0                       # number of work items this cpu completed
system.switch_cpus_1.numWorkItemsStarted            0                       # number of work items this cpu started
system.switch_cpus_1.rename.BlockCycles      20436198                       # Number of cycles rename is blocking
system.switch_cpus_1.rename.CommittedMaps    563070586                       # Number of HB maps that are committed
system.switch_cpus_1.rename.IQFullEvents      1008664                       # Number of times rename has blocked due to IQ full
system.switch_cpus_1.rename.IdleCycles       59946480                       # Number of cycles rename is idle
system.switch_cpus_1.rename.LQFullEvents         6216                       # Number of times rename has blocked due to LQ full
system.switch_cpus_1.rename.ROBFullEvents        20800                       # Number of times rename has blocked due to ROB full
system.switch_cpus_1.rename.RenameLookups   1864463805                       # Number of register rename lookups that rename has made
system.switch_cpus_1.rename.RenamedInsts    723348362                       # Number of instructions processed by rename
system.switch_cpus_1.rename.RenamedOperands    836509977                       # Number of destination operands rename has renamed
system.switch_cpus_1.rename.RunCycles       108108754                       # Number of cycles rename is running
system.switch_cpus_1.rename.SQFullEvents     10093907                       # Number of times rename has blocked due to SQ full
system.switch_cpus_1.rename.SquashCycles      6235485                       # Number of cycles rename is squashing
system.switch_cpus_1.rename.UnblockCycles     11738868                       # Number of cycles rename is unblocking
system.switch_cpus_1.rename.UndoneMaps      273439327                       # Number of HB maps that are undone due to squashing
system.switch_cpus_1.rename.fp_rename_lookups      4108004                       # Number of floating rename lookups
system.switch_cpus_1.rename.int_rename_lookups   1093798969                       # Number of integer rename lookups
system.switch_cpus_1.rename.serializeStallCycles         3842                       # count of cycles rename stalled for serializing inst
system.switch_cpus_1.rename.serializingInsts          270                       # count of serializing insts renamed
system.switch_cpus_1.rename.skidInsts         7903080                       # count of insts added to the skid buffer
system.switch_cpus_1.rename.tempSerializingInsts          270                       # count of temporary serializing insts renamed
system.switch_cpus_1.rob.rob_reads          811415955                       # The number of ROB reads
system.switch_cpus_1.rob.rob_writes        1347328660                       # The number of ROB writes
system.switch_cpus_1.timesIdled                 25730                       # Number of times that the entire CPU went into an idle state and unscheduled itself
system.tol2bus.snoop_filter.hit_multi_requests         1109                       # Number of requests hitting in the snoop filter with multiple (>1) holders of the requested data.
system.tol2bus.snoop_filter.hit_multi_snoops            0                       # Number of snoops hitting in the snoop filter with multiple (>1) holders of the requested data.
system.tol2bus.snoop_filter.hit_single_requests       195436                       # Number of requests hitting in the snoop filter with a single holder of the requested data.
system.tol2bus.snoop_filter.hit_single_snoops          131                       # Number of snoops hitting in the snoop filter with a single holder of the requested data.
system.tol2bus.snoop_filter.tot_requests       376902                       # Total number of requests made to the snoop filter.
system.tol2bus.snoop_filter.tot_snoops            131                       # Total number of snoops made to the snoop filter.
system.tol3bus.snoop_filter.hit_multi_requests            0                       # Number of requests hitting in the snoop filter with multiple (>1) holders of the requested data.
system.tol3bus.snoop_filter.hit_multi_snoops            0                       # Number of snoops hitting in the snoop filter with multiple (>1) holders of the requested data.
system.tol3bus.snoop_filter.hit_single_requests        57114                       # Number of requests hitting in the snoop filter with a single holder of the requested data.
system.tol3bus.snoop_filter.hit_single_snoops          169                       # Number of snoops hitting in the snoop filter with a single holder of the requested data.
system.tol3bus.snoop_filter.tot_requests       113581                       # Total number of requests made to the snoop filter.
system.tol3bus.snoop_filter.tot_snoops            169                       # Total number of snoops made to the snoop filter.
system.membus.trans_dist::ReadResp                262                       # Transaction distribution
system.membus.trans_dist::WritebackDirty        46785                       # Transaction distribution
system.membus.trans_dist::CleanEvict              133                       # Transaction distribution
system.membus.trans_dist::UpgradeReq              502                       # Transaction distribution
system.membus.trans_dist::ReadExReq             46698                       # Transaction distribution
system.membus.trans_dist::ReadExResp            46698                       # Transaction distribution
system.membus.trans_dist::ReadSharedReq           262                       # Transaction distribution
system.membus.pkt_count_system.l3.mem_side::system.mem_ctrls.port       141340                       # Packet count per connected master and slave (bytes)
system.membus.pkt_count_system.l3.mem_side::total       141340                       # Packet count per connected master and slave (bytes)
system.membus.pkt_count::total                 141340                       # Packet count per connected master and slave (bytes)
system.membus.pkt_size_system.l3.mem_side::system.mem_ctrls.port      5999680                       # Cumulative packet size per connected master and slave (bytes)
system.membus.pkt_size_system.l3.mem_side::total      5999680                       # Cumulative packet size per connected master and slave (bytes)
system.membus.pkt_size::total                 5999680                       # Cumulative packet size per connected master and slave (bytes)
system.membus.snoops                                0                       # Total snoops (count)
system.membus.snoopTraffic                          0                       # Total snoop traffic (bytes)
system.membus.snoop_fanout::samples             47462                       # Request fanout histogram
system.membus.snoop_fanout::mean                    0                       # Request fanout histogram
system.membus.snoop_fanout::stdev                   0                       # Request fanout histogram
system.membus.snoop_fanout::underflows              0      0.00%      0.00% # Request fanout histogram
system.membus.snoop_fanout::0                   47462    100.00%    100.00% # Request fanout histogram
system.membus.snoop_fanout::1                       0      0.00%    100.00% # Request fanout histogram
system.membus.snoop_fanout::overflows               0      0.00%    100.00% # Request fanout histogram
system.membus.snoop_fanout::min_value               0                       # Request fanout histogram
system.membus.snoop_fanout::max_value               0                       # Request fanout histogram
system.membus.snoop_fanout::total               47462                       # Request fanout histogram
system.membus.reqLayer2.occupancy           289046000                       # Layer occupancy (ticks)
system.membus.reqLayer2.utilization               0.3                       # Layer utilization (%)
system.membus.respLayer1.occupancy          247271000                       # Layer occupancy (ticks)
system.membus.respLayer1.utilization              0.2                       # Layer utilization (%)
system.membus.power_state.pwrStateResidencyTicks::UNDEFINED 1359251775000                       # Cumulative time (in ticks) in various power states
system.switch_cpus_1.dtb.walker.power_state.pwrStateResidencyTicks::UNDEFINED 1359251775000                       # Cumulative time (in ticks) in various power states
system.switch_cpus_1.itb.walker.power_state.pwrStateResidencyTicks::UNDEFINED 1359251775000                       # Cumulative time (in ticks) in various power states
system.switch_cpus_1.power_state.pwrStateResidencyTicks::OFF 1359251775000                       # Cumulative time (in ticks) in various power states
system.switch_cpus.dtb.walker.power_state.pwrStateResidencyTicks::UNDEFINED 1359251775000                       # Cumulative time (in ticks) in various power states
system.switch_cpus.itb.walker.power_state.pwrStateResidencyTicks::UNDEFINED 1359251775000                       # Cumulative time (in ticks) in various power states
system.switch_cpus.power_state.numTransitions            1                       # Number of power state transitions
system.switch_cpus.power_state.pwrStateResidencyTicks::OFF 1359251775000                       # Cumulative time (in ticks) in various power states
system.tol2bus.trans_dist::ReadResp            127137                       # Transaction distribution
system.tol2bus.trans_dist::WritebackDirty       115985                       # Transaction distribution
system.tol2bus.trans_dist::WritebackClean       101982                       # Transaction distribution
system.tol2bus.trans_dist::CleanEvict            9894                       # Transaction distribution
system.tol2bus.trans_dist::UpgradeReq           15562                       # Transaction distribution
system.tol2bus.trans_dist::UpgradeResp          15562                       # Transaction distribution
system.tol2bus.trans_dist::ReadExReq            53782                       # Transaction distribution
system.tol2bus.trans_dist::ReadExResp           53782                       # Transaction distribution
system.tol2bus.trans_dist::ReadCleanReq        127137                       # Transaction distribution
system.tol2bus.pkt_count_system.cpu.icache.mem_side::system.l2.cpu_side       306440                       # Packet count per connected master and slave (bytes)
system.tol2bus.pkt_count_system.cpu.dcache.mem_side::system.l2.cpu_side       266441                       # Packet count per connected master and slave (bytes)
system.tol2bus.pkt_count::total                572881                       # Packet count per connected master and slave (bytes)
system.tol2bus.pkt_size_system.cpu.icache.mem_side::system.l2.cpu_side     13053440                       # Cumulative packet size per connected master and slave (bytes)
system.tol2bus.pkt_size_system.cpu.dcache.mem_side::system.l2.cpu_side      9433472                       # Cumulative packet size per connected master and slave (bytes)
system.tol2bus.pkt_size::total               22486912                       # Cumulative packet size per connected master and slave (bytes)
system.tol2bus.snoops                           47942                       # Total snoops (count)
system.tol2bus.snoopTraffic                   3041792                       # Total snoop traffic (bytes)
system.tol2bus.snoop_fanout::samples           243921                       # Request fanout histogram
system.tol2bus.snoop_fanout::mean            0.005100                       # Request fanout histogram
system.tol2bus.snoop_fanout::stdev           0.071232                       # Request fanout histogram
system.tol2bus.snoop_fanout::underflows             0      0.00%      0.00% # Request fanout histogram
system.tol2bus.snoop_fanout::0                 242677     99.49%     99.49% # Request fanout histogram
system.tol2bus.snoop_fanout::1                   1244      0.51%    100.00% # Request fanout histogram
system.tol2bus.snoop_fanout::2                      0      0.00%    100.00% # Request fanout histogram
system.tol2bus.snoop_fanout::3                      0      0.00%    100.00% # Request fanout histogram
system.tol2bus.snoop_fanout::4                      0      0.00%    100.00% # Request fanout histogram
system.tol2bus.snoop_fanout::overflows              0      0.00%    100.00% # Request fanout histogram
system.tol2bus.snoop_fanout::min_value              0                       # Request fanout histogram
system.tol2bus.snoop_fanout::max_value              1                       # Request fanout histogram
system.tol2bus.snoop_fanout::total             243921                       # Request fanout histogram
system.tol2bus.reqLayer0.occupancy          359392000                       # Layer occupancy (ticks)
system.tol2bus.reqLayer0.utilization              0.3                       # Layer utilization (%)
system.tol2bus.respLayer1.occupancy         125471935                       # Layer occupancy (ticks)
system.tol2bus.respLayer1.utilization             0.1                       # Layer utilization (%)
system.tol2bus.respLayer0.occupancy         153720000                       # Layer occupancy (ticks)
system.tol2bus.respLayer0.utilization             0.1                       # Layer utilization (%)
system.tol2bus.power_state.pwrStateResidencyTicks::UNDEFINED 1359251775000                       # Cumulative time (in ticks) in various power states
system.voltage_domain.voltage                       1                       # Voltage in Volts
system.clk_domain.clock                          1000                       # Clock period in ticks
system.l2.demand_hits::.switch_cpus_1.inst       101664                       # number of demand (read+write) hits
system.l2.demand_hits::.switch_cpus_1.data        22283                       # number of demand (read+write) hits
system.l2.demand_hits::total                   123947                       # number of demand (read+write) hits
system.l2.overall_hits::.switch_cpus_1.inst       101664                       # number of overall hits
system.l2.overall_hits::.switch_cpus_1.data        22283                       # number of overall hits
system.l2.overall_hits::total                  123947                       # number of overall hits
system.l2.demand_misses::.switch_cpus_1.inst          314                       # number of demand (read+write) misses
system.l2.demand_misses::.switch_cpus_1.data        56156                       # number of demand (read+write) misses
system.l2.demand_misses::total                  56470                       # number of demand (read+write) misses
system.l2.overall_misses::.switch_cpus_1.inst          314                       # number of overall misses
system.l2.overall_misses::.switch_cpus_1.data        56156                       # number of overall misses
system.l2.overall_misses::total                 56470                       # number of overall misses
system.l2.demand_miss_latency::.switch_cpus_1.inst     24717000                       # number of demand (read+write) miss cycles
system.l2.demand_miss_latency::.switch_cpus_1.data   4887421500                       # number of demand (read+write) miss cycles
system.l2.demand_miss_latency::total       4912138500                       # number of demand (read+write) miss cycles
system.l2.overall_miss_latency::.switch_cpus_1.inst     24717000                       # number of overall miss cycles
system.l2.overall_miss_latency::.switch_cpus_1.data   4887421500                       # number of overall miss cycles
system.l2.overall_miss_latency::total      4912138500                       # number of overall miss cycles
system.l2.demand_accesses::.switch_cpus_1.inst       101978                       # number of demand (read+write) accesses
system.l2.demand_accesses::.switch_cpus_1.data        78439                       # number of demand (read+write) accesses
system.l2.demand_accesses::total               180417                       # number of demand (read+write) accesses
system.l2.overall_accesses::.switch_cpus_1.inst       101978                       # number of overall (read+write) accesses
system.l2.overall_accesses::.switch_cpus_1.data        78439                       # number of overall (read+write) accesses
system.l2.overall_accesses::total              180417                       # number of overall (read+write) accesses
system.l2.demand_miss_rate::.switch_cpus_1.inst     0.003079                       # miss rate for demand accesses
[...]
system.cpu.dcache.demand_miss_latency::total   6886959968                       # number of demand (read+write) miss cycles
system.cpu.dcache.overall_miss_latency::.switch_cpus.data   1099864000                       # number of overall miss cycles
system.cpu.dcache.overall_miss_latency::.switch_cpus_1.data   5787095968                       # number of overall miss cycles
system.cpu.dcache.overall_miss_latency::total   6886959968                       # number of overall miss cycles
system.cpu.dcache.demand_accesses::.cpu.data    368010250                       # number of demand (read+write) accesses
system.cpu.dcache.demand_accesses::.switch_cpus.data     17378405                       # number of demand (read+write) accesses
system.cpu.dcache.demand_accesses::.switch_cpus_1.data     90076984                       # number of demand (read+write) accesses
system.cpu.dcache.demand_accesses::total    475465639                       # number of demand (read+write) accesses
system.cpu.dcache.overall_accesses::.cpu.data    368010250                       # number of overall (read+write) accesses
system.cpu.dcache.overall_accesses::.switch_cpus.data     17378405                       # number of overall (read+write) accesses
system.cpu.dcache.overall_accesses::.switch_cpus_1.data     90076984                       # number of overall (read+write) accesses
system.cpu.dcache.overall_accesses::total    475465639                       # number of overall (read+write) accesses
system.cpu.dcache.demand_miss_rate::.cpu.data     0.000633                       # miss rate for demand accesses
system.cpu.dcache.demand_miss_rate::.switch_cpus.data     0.001041                       # miss rate for demand accesses
system.cpu.dcache.demand_miss_rate::.switch_cpus_1.data     0.001188                       # miss rate for demand accesses
system.cpu.dcache.demand_miss_rate::total     0.000753                       # miss rate for demand accesses
system.cpu.dcache.overall_miss_rate::.cpu.data     0.000633                       # miss rate for overall accesses
system.cpu.dcache.overall_miss_rate::.switch_cpus.data     0.001041                       # miss rate for overall accesses
system.cpu.dcache.overall_miss_rate::.switch_cpus_1.data     0.001188                       # miss rate for overall accesses
system.cpu.dcache.overall_miss_rate::total     0.000753                       # miss rate for overall accesses
system.cpu.dcache.demand_avg_miss_latency::.switch_cpus.data 60776.040228                       # average overall miss latency
system.cpu.dcache.demand_avg_miss_latency::.switch_cpus_1.data 54059.747482                       # average overall miss latency
system.cpu.dcache.demand_avg_miss_latency::total 19239.790498                       # average overall miss latency
system.cpu.dcache.overall_avg_miss_latency::.switch_cpus.data 60776.040228                       # average overall miss latency
system.cpu.dcache.overall_avg_miss_latency::.switch_cpus_1.data 54059.747482                       # average overall miss latency
system.cpu.dcache.overall_avg_miss_latency::total 19239.790498                       # average overall miss latency
system.cpu.dcache.blocked_cycles::no_mshrs         3555                       # number of cycles access was blocked
system.cpu.dcache.blocked_cycles::no_targets          119                       # number of cycles access was blocked
system.cpu.dcache.blocked::no_mshrs               325                       # number of cycles access was blocked
system.cpu.dcache.blocked::no_targets               2                       # number of cycles access was blocked
system.cpu.dcache.avg_blocked_cycles::no_mshrs    10.938462                       # average number of cycles each access was blocked
system.cpu.dcache.avg_blocked_cycles::no_targets    59.500000                       # average number of cycles each access was blocked
system.cpu.dcache.writebacks::.writebacks       267227                       # number of writebacks
system.cpu.dcache.writebacks::total            267227                       # number of writebacks
system.cpu.dcache.demand_mshr_hits::.switch_cpus_1.data        20500                       # number of demand (read+write) MSHR hits
system.cpu.dcache.demand_mshr_hits::total        20500                       # number of demand (read+write) MSHR hits
system.cpu.dcache.overall_mshr_hits::.switch_cpus_1.data        20500                       # number of overall MSHR hits
system.cpu.dcache.overall_mshr_hits::total        20500                       # number of overall MSHR hits
system.cpu.dcache.demand_mshr_misses::.switch_cpus.data        18097                       # number of demand (read+write) MSHR misses
system.cpu.dcache.demand_mshr_misses::.switch_cpus_1.data        86550                       # number of demand (read+write) MSHR misses
system.cpu.dcache.demand_mshr_misses::total       104647                       # number of demand (read+write) MSHR misses
system.cpu.dcache.overall_mshr_misses::.switch_cpus.data        18097                       # number of overall MSHR misses
system.cpu.dcache.overall_mshr_misses::.switch_cpus_1.data        86550                       # number of overall MSHR misses
system.cpu.dcache.overall_mshr_misses::total       104647                       # number of overall MSHR misses
system.cpu.dcache.demand_mshr_miss_latency::.switch_cpus.data   1081767000                       # number of demand (read+write) MSHR miss cycles
system.cpu.dcache.demand_mshr_miss_latency::.switch_cpus_1.data   5431887968                       # number of demand (read+write) MSHR miss cycles
system.cpu.dcache.demand_mshr_miss_latency::total   6513654968                       # number of demand (read+write) MSHR miss cycles
system.cpu.dcache.overall_mshr_miss_latency::.switch_cpus.data   1081767000                       # number of overall MSHR miss cycles
system.cpu.dcache.overall_mshr_miss_latency::.switch_cpus_1.data   5431887968                       # number of overall MSHR miss cycles
system.cpu.dcache.overall_mshr_miss_latency::total   6513654968                       # number of overall MSHR miss cycles
system.cpu.dcache.demand_mshr_miss_rate::.switch_cpus.data     0.001041                       # mshr miss rate for demand accesses
system.cpu.dcache.demand_mshr_miss_rate::.switch_cpus_1.data     0.000961                       # mshr miss rate for demand accesses
system.cpu.dcache.demand_mshr_miss_rate::total     0.000220                       # mshr miss rate for demand accesses
system.cpu.dcache.overall_mshr_miss_rate::.switch_cpus.data     0.001041                       # mshr miss rate for overall accesses
system.cpu.dcache.overall_mshr_miss_rate::.switch_cpus_1.data     0.000961                       # mshr miss rate for overall accesses
system.cpu.dcache.overall_mshr_miss_rate::total     0.000220                       # mshr miss rate for overall accesses
system.cpu.dcache.demand_avg_mshr_miss_latency::.switch_cpus.data 59776.040228                       # average overall mshr miss latency
system.cpu.dcache.demand_avg_mshr_miss_latency::.switch_cpus_1.data 62760.115170                       # average overall mshr miss latency
system.cpu.dcache.demand_avg_mshr_miss_latency::total 62244.067847                       # average overall mshr miss latency
system.cpu.dcache.overall_avg_mshr_miss_latency::.switch_cpus.data 59776.040228                       # average overall mshr miss latency
system.cpu.dcache.overall_avg_mshr_miss_latency::.switch_cpus_1.data 62760.115170                       # average overall mshr miss latency
system.cpu.dcache.overall_avg_mshr_miss_latency::total 62244.067847                       # average overall mshr miss latency
system.cpu.dcache.replacements                 309464                       # number of replacements
system.cpu.dcache.ReadReq_hits::.cpu.data    231035047                       # number of ReadReq hits
system.cpu.dcache.ReadReq_hits::.switch_cpus.data     11297769                       # number of ReadReq hits
system.cpu.dcache.ReadReq_hits::.switch_cpus_1.data     59868033                       # number of ReadReq hits
system.cpu.dcache.ReadReq_hits::total       302200849                       # number of ReadReq hits
system.cpu.dcache.ReadReq_misses::.cpu.data        48225                       # number of ReadReq misses
system.cpu.dcache.ReadReq_misses::.switch_cpus.data         3953                       # number of ReadReq misses
system.cpu.dcache.ReadReq_misses::.switch_cpus_1.data        37706                       # number of ReadReq misses
system.cpu.dcache.ReadReq_misses::total         89884                       # number of ReadReq misses
system.cpu.dcache.ReadReq_miss_latency::.switch_cpus.data     79267500                       # number of ReadReq miss cycles
system.cpu.dcache.ReadReq_miss_latency::.switch_cpus_1.data    756646000                       # number of ReadReq miss cycles
system.cpu.dcache.ReadReq_miss_latency::total    835913500                       # number of ReadReq miss cycles
system.cpu.dcache.ReadReq_accesses::.cpu.data    231083272                       # number of ReadReq accesses(hits+misses)
system.cpu.dcache.ReadReq_accesses::.switch_cpus.data     11301722                       # number of ReadReq accesses(hits+misses)
system.cpu.dcache.ReadReq_accesses::.switch_cpus_1.data     59905739                       # number of ReadReq accesses(hits+misses)
system.cpu.dcache.ReadReq_accesses::total    302290733                       # number of ReadReq accesses(hits+misses)
system.cpu.dcache.ReadReq_miss_rate::.cpu.data     0.000209                       # miss rate for ReadReq accesses
system.cpu.dcache.ReadReq_miss_rate::.switch_cpus.data     0.000350                       # miss rate for ReadReq accesses
system.cpu.dcache.ReadReq_miss_rate::.switch_cpus_1.data     0.000629                       # miss rate for ReadReq accesses
system.cpu.dcache.ReadReq_miss_rate::total     0.000297                       # miss rate for ReadReq accesses
system.cpu.dcache.ReadReq_avg_miss_latency::.switch_cpus.data 20052.491778                       # average ReadReq miss latency
system.cpu.dcache.ReadReq_avg_miss_latency::.switch_cpus_1.data 20066.991991                       # average ReadReq miss latency
system.cpu.dcache.ReadReq_avg_miss_latency::total  9299.914334                       # average ReadReq miss latency
system.cpu.dcache.ReadReq_mshr_hits::.switch_cpus_1.data        13048                       # number of ReadReq MSHR hits
system.cpu.dcache.ReadReq_mshr_hits::total        13048                       # number of ReadReq MSHR hits
system.cpu.dcache.ReadReq_mshr_misses::.switch_cpus.data         3953                       # number of ReadReq MSHR misses
system.cpu.dcache.ReadReq_mshr_misses::.switch_cpus_1.data        24658                       # number of ReadReq MSHR misses
system.cpu.dcache.ReadReq_mshr_misses::total        28611                       # number of ReadReq MSHR misses
system.cpu.dcache.ReadReq_mshr_miss_latency::.switch_cpus.data     75314500                       # number of ReadReq MSHR miss cycles
system.cpu.dcache.ReadReq_mshr_miss_latency::.switch_cpus_1.data    470795000                       # number of ReadReq MSHR miss cycles
system.cpu.dcache.ReadReq_mshr_miss_latency::total    546109500                       # number of ReadReq MSHR miss cycles
system.cpu.dcache.ReadReq_mshr_miss_rate::.switch_cpus.data     0.000350                       # mshr miss rate for ReadReq accesses
system.cpu.dcache.ReadReq_mshr_miss_rate::.switch_cpus_1.data     0.000412                       # mshr miss rate for ReadReq accesses
system.cpu.dcache.ReadReq_mshr_miss_rate::total     0.000095                       # mshr miss rate for ReadReq accesses
system.cpu.dcache.ReadReq_avg_mshr_miss_latency::.switch_cpus.data 19052.491778                       # average ReadReq mshr miss latency
system.cpu.dcache.ReadReq_avg_mshr_miss_latency::.switch_cpus_1.data 19092.992132                       # average ReadReq mshr miss latency
system.cpu.dcache.ReadReq_avg_mshr_miss_latency::total 19087.396456                       # average ReadReq mshr miss latency
system.cpu.dcache.WriteReq_hits::.cpu.data    136742396                       # number of WriteReq hits
system.cpu.dcache.WriteReq_hits::.switch_cpus.data      6062539                       # number of WriteReq hits
system.cpu.dcache.WriteReq_hits::.switch_cpus_1.data     30101901                       # number of WriteReq hits
system.cpu.dcache.WriteReq_hits::total      172906836                       # number of WriteReq hits
system.cpu.dcache.WriteReq_misses::.cpu.data       184582                       # number of WriteReq misses
system.cpu.dcache.WriteReq_misses::.switch_cpus.data        14144                       # number of WriteReq misses
system.cpu.dcache.WriteReq_misses::.switch_cpus_1.data        69344                       # number of WriteReq misses
system.cpu.dcache.WriteReq_misses::total       268070                       # number of WriteReq misses
system.cpu.dcache.WriteReq_miss_latency::.switch_cpus.data   1020596500                       # number of WriteReq miss cycles
system.cpu.dcache.WriteReq_miss_latency::.switch_cpus_1.data   5030449968                       # number of WriteReq miss cycles
system.cpu.dcache.WriteReq_miss_latency::total   6051046468                       # number of WriteReq miss cycles
system.cpu.dcache.WriteReq_accesses::.cpu.data    136926978                       # number of WriteReq accesses(hits+misses)
system.cpu.dcache.WriteReq_accesses::.switch_cpus.data      6076683                       # number of WriteReq accesses(hits+misses)
system.cpu.dcache.WriteReq_accesses::.switch_cpus_1.data     30171245                       # number of WriteReq accesses(hits+misses)
system.cpu.dcache.WriteReq_accesses::total    173174906                       # number of WriteReq accesses(hits+misses)
system.cpu.dcache.WriteReq_miss_rate::.cpu.data     0.001348                       # miss rate for WriteReq accesses
system.cpu.dcache.WriteReq_miss_rate::.switch_cpus.data     0.002328                       # miss rate for WriteReq accesses
system.cpu.dcache.WriteReq_miss_rate::.switch_cpus_1.data     0.002298                       # miss rate for WriteReq accesses
system.cpu.dcache.WriteReq_miss_rate::total     0.001548                       # miss rate for WriteReq accesses
system.cpu.dcache.WriteReq_avg_miss_latency::.switch_cpus.data 72157.557975                       # average WriteReq miss latency
system.cpu.dcache.WriteReq_avg_miss_latency::.switch_cpus_1.data 72543.406322                       # average WriteReq miss latency
system.cpu.dcache.WriteReq_avg_miss_latency::total 22572.635759                       # average WriteReq miss latency
system.cpu.dcache.WriteReq_mshr_hits::.switch_cpus_1.data         7452                       # number of WriteReq MSHR hits
system.cpu.dcache.WriteReq_mshr_hits::total         7452                       # number of WriteReq MSHR hits
system.cpu.dcache.WriteReq_mshr_misses::.switch_cpus.data        14144                       # number of WriteReq MSHR misses
system.cpu.dcache.WriteReq_mshr_misses::.switch_cpus_1.data        61892                       # number of WriteReq MSHR misses
system.cpu.dcache.WriteReq_mshr_misses::total        76036                       # number of WriteReq MSHR misses
system.cpu.dcache.WriteReq_mshr_miss_latency::.switch_cpus.data   1006452500                       # number of WriteReq MSHR miss cycles
system.cpu.dcache.WriteReq_mshr_miss_latency::.switch_cpus_1.data   4961092968                       # number of WriteReq MSHR miss cycles
system.cpu.dcache.WriteReq_mshr_miss_latency::total   5967545468                       # number of WriteReq MSHR miss cycles
system.cpu.dcache.WriteReq_mshr_miss_rate::.switch_cpus.data     0.002328                       # mshr miss rate for WriteReq accesses
system.cpu.dcache.WriteReq_mshr_miss_rate::.switch_cpus_1.data     0.002051                       # mshr miss rate for WriteReq accesses
system.cpu.dcache.WriteReq_mshr_miss_rate::total     0.000439                       # mshr miss rate for WriteReq accesses
system.cpu.dcache.WriteReq_avg_mshr_miss_latency::.switch_cpus.data 71157.557975                       # average WriteReq mshr miss latency
system.cpu.dcache.WriteReq_avg_mshr_miss_latency::.switch_cpus_1.data 80157.257287                       # average WriteReq mshr miss latency
system.cpu.dcache.WriteReq_avg_mshr_miss_latency::total 78483.158872                       # average WriteReq mshr miss latency
system.cpu.dcache.power_state.pwrStateResidencyTicks::UNDEFINED 1359251775000                       # Cumulative time (in ticks) in various power states
system.cpu.dcache.tags.tagsinuse           511.992132                       # Cycle average of tags in use
system.cpu.dcache.tags.total_refs           475445318                       # Total number of references to valid blocks.
system.cpu.dcache.tags.sampled_refs            309976                       # Sample count of references to valid blocks.
system.cpu.dcache.tags.avg_refs           1533.813321                       # Average number of references to valid blocks.
system.cpu.dcache.tags.warmup_cycle              1500                       # Cycle when the warmup percentage was hit.
system.cpu.dcache.tags.occ_blocks::.cpu.data   441.936257                       # Average occupied blocks per requestor
system.cpu.dcache.tags.occ_blocks::.switch_cpus.data    31.631714                       # Average occupied blocks per requestor
system.cpu.dcache.tags.occ_blocks::.switch_cpus_1.data    38.424161                       # Average occupied blocks per requestor
system.cpu.dcache.tags.occ_percent::.cpu.data     0.863157                       # Average percentage of cache occupancy
system.cpu.dcache.tags.occ_percent::.switch_cpus.data     0.061781                       # Average percentage of cache occupancy
system.cpu.dcache.tags.occ_percent::.switch_cpus_1.data     0.075047                       # Average percentage of cache occupancy
system.cpu.dcache.tags.occ_percent::total     0.999985                       # Average percentage of cache occupancy
system.cpu.dcache.tags.occ_task_id_blocks::1024          512                       # Occupied blocks per task id
system.cpu.dcache.tags.age_task_id_blocks_1024::0            1                       # Occupied blocks per task id
system.cpu.dcache.tags.age_task_id_blocks_1024::1           16                       # Occupied blocks per task id
system.cpu.dcache.tags.age_task_id_blocks_1024::2          488                       # Occupied blocks per task id
system.cpu.dcache.tags.age_task_id_blocks_1024::3            1                       # Occupied blocks per task id
system.cpu.dcache.tags.age_task_id_blocks_1024::4            6                       # Occupied blocks per task id
system.cpu.dcache.tags.occ_task_id_percent::1024            1                       # Percentage of cache occupancy per task id
system.cpu.dcache.tags.tag_accesses        1902172532                       # Number of tag accesses
system.cpu.dcache.tags.data_accesses       1902172532                       # Number of data accesses
system.cpu.dcache.tags.power_state.pwrStateResidencyTicks::UNDEFINED 1359251775000                       # Cumulative time (in ticks) in various power states
system.cpu.power_state.numTransitions               2                       # Number of power state transitions
system.cpu.power_state.pwrStateResidencyTicks::ON 1168016829000                       # Cumulative time (in ticks) in various power states
system.cpu.power_state.pwrStateResidencyTicks::OFF 191234946000                       # Cumulative time (in ticks) in various power states

---------- End Simulation Statistics   ----------
